/*--------------------------------*- C++ -*----------------------------------*\
| =========                 |                                                 |
| \\      /  F ield         | OpenFOAM: The Open Source CFD Toolbox           |
|  \\    /   O peration     | Version:  2.2.1                                 |
|   \\  /    A nd           | Web:      www.OpenFOAM.org                      |
|    \\/     M anipulation  |                                                 |
\*---------------------------------------------------------------------------*/
FoamFile
{
    version     2.0;
    format      ascii;
    class       dictionary;
    object      blockMeshDict;
}
// * * * * * * * * * * * * * * * * * * * * * * * * * * * * * * * * * * * * * //

convertToMeters 1;	//This gives you the scale: 0.001 would mean all units in this file are [mm]

vertices		//list of vertices defining the geometry
(
    (-0.01 -0.01 -0.01)		// the minimum point
    (0.2 -0.01 -0.01)		// moving in the x direction to the maximum x point
    (0.2 0.2 -0.01)		  // keeping that max x but moving to the max y
    (-0.01 0.2 -0.01)		// completing the square surface
    (-0.01 -0.01 0.2)		  // this defined the z direction going to max z coord
    (0.2 -0.01 0.2)		  // second corner piece in second face
    (0.2 0.2 0.2)		    // maximum point opposite to the 0th point
    (-0.01 0.2 0.2)      // completing the final square surface completing the geometry
);

blocks			//defining the block which the geometry is made out of
(
    hex (0 1 2 3 4 5 6 7) (100 10 1) simpleGrading (1 1 1)  	
//this means that the only block in the geometry is defined by vertices (0 1 2 ...), there are 100, 10 
//and 1 cells in the x, y, and z direction and that in each direction all the cells have the same length 
);

edges
(
//    spline 0 1 
//    (
//	    (5 -2 0)
//    )
//    spline 4 5 
//    (
//	    (5 -2 0.1)
//    )
);

boundary
(
    walls		//choose a name for the boundary
    {
        type wall;	//define the type of the boundary
        faces
        (
            (0 4 5 1)	//list the faces; vertices should be listed in clockwise direction, as seen from the block
            (2 6 7 3)
        );
    }

    
    inlet
    {
        type patch;
        faces
        (
            (3 7 4 0)
	);
    }	   	


    outlet
    {
	type patch;
	faces
	(
            (2 1 5 6)
	);
    }



    frontAndBack
    {
        type empty;
        faces
        (
            (1 2 3 0)
            (7 6 5 4)
        );
    }
);


// ************************************************************************* //
