/*--------------------------------*- C++ -*----------------------------------*\
| =========                 |                                                 |
| \\      /  F ield         | OpenFOAM: The Open Source CFD Toolbox           |
|  \\    /   O peration     | Version:  5.x                                   |
|   \\  /    A nd           | Web:      www.OpenFOAM.org                      |
|    \\/     M anipulation  |                                                 |
\*---------------------------------------------------------------------------*/
/*   Windows 32 and 64 bit porting by blueCAPE: http://www.bluecape.com.pt   *\
|  Based on Windows porting (2.0.x v4) by Symscape: http://www.symscape.com   |
\*---------------------------------------------------------------------------*/
FoamFile
{
    version     2.0;
    format      ascii;
    class       polyBoundaryMesh;
    location    "3/polyMesh";
    object      boundary;
}
// * * * * * * * * * * * * * * * * * * * * * * * * * * * * * * * * * * * * * //

7
(
    walls
    {
        type            wall;
        inGroups        1(wall);
        nFaces          10000;
        startFace       472934;
    }
    inlet
    {
        type            patch;
        nFaces          500;
        startFace       482934;
    }
    outlet
    {
        type            patch;
        nFaces          500;
        startFace       483434;
    }
    frontAndBack
    {
        type            empty;
        inGroups        1(empty);
        nFaces          2000;
        startFace       483934;
    }
    pipe_superfine_walls
    {
        type            wall;
        inGroups        1(wall);
        nFaces          29172;
        startFace       485934;
    }
    pipe_superfine_outlet
    {
        type            wall;
        inGroups        1(wall);
        nFaces          266;
        startFace       515106;
    }
    pipe_superfine_inlet
    {
        type            wall;
        inGroups        1(wall);
        nFaces          266;
        startFace       515372;
    }
)

// ************************************************************************* //
