/*--------------------------------*- C++ -*----------------------------------*\ 
|  =========                 |                                                | 
|  \\      /  F ield         | OpenFOAM: The Open Source CFD Toolbox          | 
|   \\    /   O peration     | Version:  2.2.1                                | 
|    \\  /    A nd           | Web:      www.OpenFOAM.org                     | 
|     \\/     M anipulation  |                                                | 
\*---------------------------------------------------------------------------*/ 

FoamFile 
{ 
    version     2.0; 
    format      ascii; 
    class       dictionary; 
    object      blockMeshDict; 
} 
 
convertToMeters 0.0254; 
 
vertices 
( 
(0.000000 0.000000 0.000000) //point 0 
(27.000000 0.000000 0.000000) //point 1 
(27.000000 3.000000 0.000000) //point 2 
(0.000000 9.000000 0.000000) //point 3 
(0.000000 6.363961 6.363961) //point 4 
(27.000000 3.000000 3.000000) //point 5 
(27.000000 0.000000 3.000000) //point 6 
(0.000000 0.000000 9.000000) //point 7 
(63.000000 0.000000 0.000000) //point 8 
(63.000000 0.000000 3.000000) //point 9 
(63.000000 3.000000 0.000000) //point 10 
(63.000000 3.000000 3.000000) //point 11 
); 
blocks 
( 
hex (3 2 5 4 0 1 1 0) (30 3 60) simpleGrading (1.000000 1.000000 273.636364) 
hex (4 5 6 7 0 1 1 0) (30 3 60) simpleGrading (1.000000 1.000000 273.636364) 
hex (2 10 11 5 1 8 8 1) (40 3 60) simpleGrading (1.000000 1.000000 273.636364) 
hex (5 11 9 6 1 8 8 1) (40 3 60) simpleGrading (1.000000 1.000000 273.636364) 
); 
edges 
( 
spline 4 5 
( 
(0.026973 6.363961 6.363961) 
(0.053946 6.363961 6.363961) 
(0.080919 6.363960 6.363960) 
(0.107892 6.363959 6.363959) 
(0.134865 6.363957 6.363957) 
(0.161838 6.363954 6.363954) 
(0.188811 6.363950 6.363950) 
(0.215784 6.363944 6.363944) 
(0.242757 6.363937 6.363937) 
(0.269730 6.363928 6.363928) 
(0.296703 6.363917 6.363917) 
(0.323676 6.363904 6.363904) 
(0.350649 6.363889 6.363889) 
(0.377622 6.363871 6.363871) 
(0.404595 6.363850 6.363850) 
(0.431568 6.363827 6.363827) 
(0.458541 6.363800 6.363800) 
(0.485514 6.363771 6.363771) 
(0.512488 6.363737 6.363737) 
(0.539461 6.363701 6.363701) 
(0.566434 6.363660 6.363660) 
(0.593407 6.363616 6.363616) 
(0.620380 6.363567 6.363567) 
(0.647353 6.363514 6.363514) 
(0.674326 6.363456 6.363456) 
(0.701299 6.363394 6.363394) 
(0.728272 6.363327 6.363327) 
(0.755245 6.363255 6.363255) 
(0.782218 6.363178 6.363178) 
(0.809191 6.363096 6.363096) 
(0.836164 6.363008 6.363008) 
(0.863137 6.362914 6.362914) 
(0.890110 6.362815 6.362815) 
(0.917083 6.362709 6.362709) 
(0.944056 6.362597 6.362597) 
(0.971029 6.362479 6.362479) 
(0.998002 6.362355 6.362355) 
(1.024975 6.362224 6.362224) 
(1.051948 6.362086 6.362086) 
(1.078921 6.361941 6.361941) 
(1.105894 6.361789 6.361789) 
(1.132867 6.361630 6.361630) 
(1.159840 6.361463 6.361463) 
(1.186813 6.361289 6.361289) 
(1.213786 6.361107 6.361107) 
(1.240759 6.360917 6.360917) 
(1.267732 6.360720 6.360720) 
(1.294705 6.360514 6.360514) 
(1.321678 6.360299 6.360299) 
(1.348651 6.360077 6.360077) 
(1.375624 6.359845 6.359845) 
(1.402597 6.359605 6.359605) 
(1.429570 6.359356 6.359356) 
(1.456543 6.359098 6.359098) 
(1.483516 6.358831 6.358831) 
(1.510490 6.358554 6.358554) 
(1.537463 6.358268 6.358268) 
(1.564436 6.357973 6.357973) 
(1.591409 6.357667 6.357667) 
(1.618382 6.357352 6.357352) 
(1.645355 6.357027 6.357027) 
(1.672328 6.356692 6.356692) 
(1.699301 6.356347 6.356347) 
(1.726274 6.355991 6.355991) 
(1.753247 6.355624 6.355624) 
(1.780220 6.355247 6.355247) 
(1.807193 6.354859 6.354859) 
(1.834166 6.354461 6.354461) 
(1.861139 6.354051 6.354051) 
(1.888112 6.353630 6.353630) 
(1.915085 6.353198 6.353198) 
(1.942058 6.352754 6.352754) 
(1.969031 6.352299 6.352299) 
(1.996004 6.351833 6.351833) 
(2.022977 6.351354 6.351354) 
(2.049950 6.350864 6.350864) 
(2.076923 6.350362 6.350362) 
(2.103896 6.349847 6.349847) 
(2.130869 6.349321 6.349321) 
(2.157842 6.348782 6.348782) 
(2.184815 6.348231 6.348231) 
(2.211788 6.347667 6.347667) 
(2.238761 6.347090 6.347090) 
(2.265734 6.346501 6.346501) 
(2.292707 6.345898 6.345898) 
(2.319680 6.345283 6.345283) 
(2.346653 6.344655 6.344655) 
(2.373626 6.344013 6.344013) 
(2.400599 6.343358 6.343358) 
(2.427572 6.342690 6.342690) 
(2.454545 6.342008 6.342008) 
(2.481518 6.341313 6.341313) 
(2.508492 6.340604 6.340604) 
(2.535465 6.339881 6.339881) 
(2.562438 6.339144 6.339144) 
(2.589411 6.338393 6.338393) 
(2.616384 6.337628 6.337628) 
(2.643357 6.336849 6.336849) 
(2.670330 6.336055 6.336055) 
(2.697303 6.335247 6.335247) 
(2.724276 6.334425 6.334425) 
(2.751249 6.333588 6.333588) 
(2.778222 6.332736 6.332736) 
(2.805195 6.331869 6.331869) 
(2.832168 6.330988 6.330988) 
(2.859141 6.330092 6.330092) 
(2.886114 6.329181 6.329181) 
(2.913087 6.328254 6.328254) 
(2.940060 6.327313 6.327313) 
(2.967033 6.326356 6.326356) 
(2.994006 6.325383 6.325383) 
(3.020979 6.324396 6.324396) 
(3.047952 6.323392 6.323392) 
(3.074925 6.322373 6.322373) 
(3.101898 6.321339 6.321339) 
(3.128871 6.320288 6.320288) 
(3.155844 6.319222 6.319222) 
(3.182817 6.318140 6.318140) 
(3.209790 6.317042 6.317042) 
(3.236763 6.315928 6.315928) 
(3.263736 6.314797 6.314797) 
(3.290709 6.313651 6.313651) 
(3.317682 6.312488 6.312488) 
(3.344655 6.311308 6.311308) 
(3.371628 6.310113 6.310113) 
(3.398601 6.308900 6.308900) 
(3.425574 6.307671 6.307671) 
(3.452547 6.306426 6.306426) 
(3.479520 6.305164 6.305164) 
(3.506494 6.303885 6.303885) 
(3.533467 6.302589 6.302589) 
(3.560440 6.301276 6.301276) 
(3.587413 6.299946 6.299946) 
(3.614386 6.298599 6.298599) 
(3.641359 6.297235 6.297235) 
(3.668332 6.295854 6.295854) 
(3.695305 6.294456 6.294456) 
(3.722278 6.293041 6.293041) 
(3.749251 6.291608 6.291608) 
(3.776224 6.290157 6.290157) 
(3.803197 6.288690 6.288690) 
(3.830170 6.287204 6.287204) 
(3.857143 6.285701 6.285701) 
(3.884116 6.284181 6.284181) 
(3.911089 6.282643 6.282643) 
(3.938062 6.281087 6.281087) 
(3.965035 6.279513 6.279513) 
(3.992008 6.277922 6.277922) 
(4.018981 6.276313 6.276313) 
(4.045954 6.274685 6.274685) 
(4.072927 6.273040 6.273040) 
(4.099900 6.271377 6.271377) 
(4.126873 6.269696 6.269696) 
(4.153846 6.267996 6.267996) 
(4.180819 6.266279 6.266279) 
(4.207792 6.264543 6.264543) 
(4.234765 6.262789 6.262789) 
(4.261738 6.261017 6.261017) 
(4.288711 6.259226 6.259226) 
(4.315684 6.257417 6.257417) 
(4.342657 6.255590 6.255590) 
(4.369630 6.253744 6.253744) 
(4.396603 6.251880 6.251880) 
(4.423576 6.249997 6.249997) 
(4.450549 6.248095 6.248095) 
(4.477522 6.246175 6.246175) 
(4.504496 6.244237 6.244237) 
(4.531469 6.242280 6.242280) 
(4.558442 6.240304 6.240304) 
(4.585415 6.238309 6.238309) 
(4.612388 6.236296 6.236296) 
(4.639361 6.234263 6.234263) 
(4.666334 6.232212 6.232212) 
(4.693307 6.230143 6.230143) 
(4.720280 6.228054 6.228054) 
(4.747253 6.225946 6.225946) 
(4.774226 6.223820 6.223820) 
(4.801199 6.221674 6.221674) 
(4.828172 6.219510 6.219510) 
(4.855145 6.217326 6.217326) 
(4.882118 6.215124 6.215124) 
(4.909091 6.212902 6.212902) 
(4.936064 6.210662 6.210662) 
(4.963037 6.208402 6.208402) 
(4.990010 6.206123 6.206123) 
(5.016983 6.203825 6.203825) 
(5.043956 6.201508 6.201508) 
(5.070929 6.199172 6.199172) 
(5.097902 6.196816 6.196816) 
(5.124875 6.194442 6.194442) 
(5.151848 6.192048 6.192048) 
(5.178821 6.189635 6.189635) 
(5.205794 6.187203 6.187203) 
(5.232767 6.184751 6.184751) 
(5.259740 6.182280 6.182280) 
(5.286713 6.179790 6.179790) 
(5.313686 6.177280 6.177280) 
(5.340659 6.174752 6.174752) 
(5.367632 6.172204 6.172204) 
(5.394605 6.169636 6.169636) 
(5.421578 6.167049 6.167049) 
(5.448551 6.164443 6.164443) 
(5.475524 6.161818 6.161818) 
(5.502498 6.159173 6.159173) 
(5.529471 6.156509 6.156509) 
(5.556444 6.153825 6.153825) 
(5.583417 6.151123 6.151123) 
(5.610390 6.148400 6.148400) 
(5.637363 6.145659 6.145659) 
(5.664336 6.142898 6.142898) 
(5.691309 6.140117 6.140117) 
(5.718282 6.137317 6.137317) 
(5.745255 6.134498 6.134498) 
(5.772228 6.131660 6.131660) 
(5.799201 6.128802 6.128802) 
(5.826174 6.125924 6.125924) 
(5.853147 6.123028 6.123028) 
(5.880120 6.120112 6.120112) 
(5.907093 6.117176 6.117176) 
(5.934066 6.114221 6.114221) 
(5.961039 6.111247 6.111247) 
(5.988012 6.108254 6.108254) 
(6.014985 6.105241 6.105241) 
(6.041958 6.102209 6.102209) 
(6.068931 6.099157 6.099157) 
(6.095904 6.096086 6.096086) 
(6.122877 6.092996 6.092996) 
(6.149850 6.089887 6.089887) 
(6.176823 6.086758 6.086758) 
(6.203796 6.083610 6.083610) 
(6.230769 6.080443 6.080443) 
(6.257742 6.077256 6.077256) 
(6.284715 6.074050 6.074050) 
(6.311688 6.070825 6.070825) 
(6.338661 6.067581 6.067581) 
(6.365634 6.064318 6.064318) 
(6.392607 6.061035 6.061035) 
(6.419580 6.057733 6.057733) 
(6.446553 6.054412 6.054412) 
(6.473526 6.051072 6.051072) 
(6.500500 6.047713 6.047713) 
(6.527473 6.044335 6.044335) 
(6.554446 6.040937 6.040937) 
(6.581419 6.037521 6.037521) 
(6.608392 6.034086 6.034086) 
(6.635365 6.030631 6.030631) 
(6.662338 6.027158 6.027158) 
(6.689311 6.023666 6.023666) 
(6.716284 6.020154 6.020154) 
(6.743257 6.016624 6.016624) 
(6.770230 6.013075 6.013075) 
(6.797203 6.009507 6.009507) 
(6.824176 6.005920 6.005920) 
(6.851149 6.002315 6.002315) 
(6.878122 5.998690 5.998690) 
(6.905095 5.995047 5.995047) 
(6.932068 5.991385 5.991385) 
(6.959041 5.987704 5.987704) 
(6.986014 5.984005 5.984005) 
(7.012987 5.980287 5.980287) 
(7.039960 5.976551 5.976551) 
(7.066933 5.972796 5.972796) 
(7.093906 5.969022 5.969022) 
(7.120879 5.965230 5.965230) 
(7.147852 5.961419 5.961419) 
(7.174825 5.957590 5.957590) 
(7.201798 5.953743 5.953743) 
(7.228771 5.949877 5.949877) 
(7.255744 5.945992 5.945992) 
(7.282717 5.942090 5.942090) 
(7.309690 5.938169 5.938169) 
(7.336663 5.934230 5.934230) 
(7.363636 5.930273 5.930273) 
(7.390609 5.926297 5.926297) 
(7.417582 5.922304 5.922304) 
(7.444555 5.918292 5.918292) 
(7.471528 5.914263 5.914263) 
(7.498501 5.910215 5.910215) 
(7.525475 5.906149 5.906149) 
(7.552448 5.902066 5.902066) 
(7.579421 5.897964 5.897964) 
(7.606394 5.893845 5.893845) 
(7.633367 5.889708 5.889708) 
(7.660340 5.885553 5.885553) 
(7.687313 5.881381 5.881381) 
(7.714286 5.877190 5.877190) 
(7.741259 5.872983 5.872983) 
(7.768232 5.868757 5.868757) 
(7.795205 5.864514 5.864514) 
(7.822178 5.860254 5.860254) 
(7.849151 5.855976 5.855976) 
(7.876124 5.851681 5.851681) 
(7.903097 5.847368 5.847368) 
(7.930070 5.843039 5.843039) 
(7.957043 5.838692 5.838692) 
(7.984016 5.834327 5.834327) 
(8.010989 5.829946 5.829946) 
(8.037962 5.825547 5.825547) 
(8.064935 5.821132 5.821132) 
(8.091908 5.816699 5.816699) 
(8.118881 5.812250 5.812250) 
(8.145854 5.807784 5.807784) 
(8.172827 5.803300 5.803300) 
(8.199800 5.798800 5.798800) 
(8.226773 5.794284 5.794284) 
(8.253746 5.789750 5.789750) 
(8.280719 5.785200 5.785200) 
(8.307692 5.780634 5.780634) 
(8.334665 5.776051 5.776051) 
(8.361638 5.771451 5.771451) 
(8.388611 5.766836 5.766836) 
(8.415584 5.762203 5.762203) 
(8.442557 5.757555 5.757555) 
(8.469530 5.752890 5.752890) 
(8.496503 5.748209 5.748209) 
(8.523477 5.743512 5.743512) 
(8.550450 5.738799 5.738799) 
(8.577423 5.734071 5.734071) 
(8.604396 5.729326 5.729326) 
(8.631369 5.724565 5.724565) 
(8.658342 5.719788 5.719788) 
(8.685315 5.714996 5.714996) 
(8.712288 5.710188 5.710188) 
(8.739261 5.705365 5.705365) 
(8.766234 5.700525 5.700525) 
(8.793207 5.695671 5.695671) 
(8.820180 5.690801 5.690801) 
(8.847153 5.685915 5.685915) 
(8.874126 5.681015 5.681015) 
(8.901099 5.676099 5.676099) 
(8.928072 5.671168 5.671168) 
(8.955045 5.666222 5.666222) 
(8.982018 5.661260 5.661260) 
(9.008991 5.656284 5.656284) 
(9.035964 5.651293 5.651293) 
(9.062937 5.646287 5.646287) 
(9.089910 5.641266 5.641266) 
(9.116883 5.636231 5.636231) 
(9.143856 5.631181 5.631181) 
(9.170829 5.626117 5.626117) 
(9.197802 5.621038 5.621038) 
(9.224775 5.615944 5.615944) 
(9.251748 5.610836 5.610836) 
(9.278721 5.605714 5.605714) 
(9.305694 5.600578 5.600578) 
(9.332667 5.595427 5.595427) 
(9.359640 5.590263 5.590263) 
(9.386613 5.585085 5.585085) 
(9.413586 5.579892 5.579892) 
(9.440559 5.574686 5.574686) 
(9.467532 5.569466 5.569466) 
(9.494505 5.564232 5.564232) 
(9.521479 5.558985 5.558985) 
(9.548452 5.553724 5.553724) 
(9.575425 5.548449 5.548449) 
(9.602398 5.543162 5.543162) 
(9.629371 5.537861 5.537861) 
(9.656344 5.532546 5.532546) 
(9.683317 5.527219 5.527219) 
(9.710290 5.521878 5.521878) 
(9.737263 5.516524 5.516524) 
(9.764236 5.511158 5.511158) 
(9.791209 5.505778 5.505778) 
(9.818182 5.500386 5.500386) 
(9.845155 5.494981 5.494981) 
(9.872128 5.489564 5.489564) 
(9.899101 5.484133 5.484133) 
(9.926074 5.478691 5.478691) 
(9.953047 5.473236 5.473236) 
(9.980020 5.467768 5.467768) 
(10.006993 5.462289 5.462289) 
(10.033966 5.456797 5.456797) 
(10.060939 5.451293 5.451293) 
(10.087912 5.445777 5.445777) 
(10.114885 5.440250 5.440250) 
(10.141858 5.434710 5.434710) 
(10.168831 5.429159 5.429159) 
(10.195804 5.423596 5.423596) 
(10.222777 5.418021 5.418021) 
(10.249750 5.412435 5.412435) 
(10.276723 5.406838 5.406838) 
(10.303696 5.401229 5.401229) 
(10.330669 5.395609 5.395609) 
(10.357642 5.389977 5.389977) 
(10.384615 5.384335 5.384335) 
(10.411588 5.378682 5.378682) 
(10.438561 5.373017 5.373017) 
(10.465534 5.367342 5.367342) 
(10.492507 5.361656 5.361656) 
(10.519481 5.355960 5.355960) 
(10.546454 5.350253 5.350253) 
(10.573427 5.344535 5.344535) 
(10.600400 5.338807 5.338807) 
(10.627373 5.333069 5.333069) 
(10.654346 5.327320 5.327320) 
(10.681319 5.321562 5.321562) 
(10.708292 5.315793 5.315793) 
(10.735265 5.310014 5.310014) 
(10.762238 5.304226 5.304226) 
(10.789211 5.298427 5.298427) 
(10.816184 5.292619 5.292619) 
(10.843157 5.286802 5.286802) 
(10.870130 5.280974 5.280974) 
(10.897103 5.275138 5.275138) 
(10.924076 5.269292 5.269292) 
(10.951049 5.263436 5.263436) 
(10.978022 5.257572 5.257572) 
(11.004995 5.251698 5.251698) 
(11.031968 5.245816 5.245816) 
(11.058941 5.239925 5.239925) 
(11.085914 5.234024 5.234024) 
(11.112887 5.228115 5.228115) 
(11.139860 5.222198 5.222198) 
(11.166833 5.216272 5.216272) 
(11.193806 5.210337 5.210337) 
(11.220779 5.204394 5.204394) 
(11.247752 5.198443 5.198443) 
(11.274725 5.192484 5.192484) 
(11.301698 5.186516 5.186516) 
(11.328671 5.180541 5.180541) 
(11.355644 5.174558 5.174558) 
(11.382617 5.168567 5.168567) 
(11.409590 5.162568 5.162568) 
(11.436563 5.156562 5.156562) 
(11.463536 5.150548 5.150548) 
(11.490509 5.144526 5.144526) 
(11.517483 5.138498 5.138498) 
(11.544456 5.132462 5.132462) 
(11.571429 5.126419 5.126419) 
(11.598402 5.120369 5.120369) 
(11.625375 5.114312 5.114312) 
(11.652348 5.108248 5.108248) 
(11.679321 5.102177 5.102177) 
(11.706294 5.096100 5.096100) 
(11.733267 5.090016 5.090016) 
(11.760240 5.083926 5.083926) 
(11.787213 5.077829 5.077829) 
(11.814186 5.071726 5.071726) 
(11.841159 5.065617 5.065617) 
(11.868132 5.059501 5.059501) 
(11.895105 5.053380 5.053380) 
(11.922078 5.047253 5.047253) 
(11.949051 5.041120 5.041120) 
(11.976024 5.034981 5.034981) 
(12.002997 5.028837 5.028837) 
(12.029970 5.022687 5.022687) 
(12.056943 5.016532 5.016532) 
(12.083916 5.010371 5.010371) 
(12.110889 5.004205 5.004205) 
(12.137862 4.998034 4.998034) 
(12.164835 4.991858 4.991858) 
(12.191808 4.985677 4.985677) 
(12.218781 4.979492 4.979492) 
(12.245754 4.973301 4.973301) 
(12.272727 4.967106 4.967106) 
(12.299700 4.960906 4.960906) 
(12.326673 4.954702 4.954702) 
(12.353646 4.948494 4.948494) 
(12.380619 4.942281 4.942281) 
(12.407592 4.936064 4.936064) 
(12.434565 4.929843 4.929843) 
(12.461538 4.923619 4.923619) 
(12.488511 4.917390 4.917390) 
(12.515485 4.911157 4.911157) 
(12.542458 4.904921 4.904921) 
(12.569431 4.898682 4.898682) 
(12.596404 4.892439 4.892439) 
(12.623377 4.886192 4.886192) 
(12.650350 4.879942 4.879942) 
(12.677323 4.873690 4.873690) 
(12.704296 4.867434 4.867434) 
(12.731269 4.861175 4.861175) 
(12.758242 4.854913 4.854913) 
(12.785215 4.848649 4.848649) 
(12.812188 4.842381 4.842381) 
(12.839161 4.836112 4.836112) 
(12.866134 4.829839 4.829839) 
(12.893107 4.823565 4.823565) 
(12.920080 4.817288 4.817288) 
(12.947053 4.811009 4.811009) 
(12.974026 4.804728 4.804728) 
(13.000999 4.798445 4.798445) 
(13.027972 4.792160 4.792160) 
(13.054945 4.785874 4.785874) 
(13.081918 4.779586 4.779586) 
(13.108891 4.773296 4.773296) 
(13.135864 4.767004 4.767004) 
(13.162837 4.760712 4.760712) 
(13.189810 4.754418 4.754418) 
(13.216783 4.748123 4.748123) 
(13.243756 4.741827 4.741827) 
(13.270729 4.735530 4.735530) 
(13.297702 4.729232 4.729232) 
(13.324675 4.722933 4.722933) 
(13.351648 4.716634 4.716634) 
(13.378621 4.710334 4.710334) 
(13.405594 4.704034 4.704034) 
(13.432567 4.697733 4.697733) 
(13.459540 4.691432 4.691432) 
(13.486513 4.685131 4.685131) 
(13.513487 4.678830 4.678830) 
(13.540460 4.672529 4.672529) 
(13.567433 4.666228 4.666228) 
(13.594406 4.659927 4.659927) 
(13.621379 4.653627 4.653627) 
(13.648352 4.647327 4.647327) 
(13.675325 4.641028 4.641028) 
(13.702298 4.634729 4.634729) 
(13.729271 4.628431 4.628431) 
(13.756244 4.622134 4.622134) 
(13.783217 4.615838 4.615838) 
(13.810190 4.609543 4.609543) 
(13.837163 4.603249 4.603249) 
(13.864136 4.596957 4.596957) 
(13.891109 4.590665 4.590665) 
(13.918082 4.584375 4.584375) 
(13.945055 4.578087 4.578087) 
(13.972028 4.571801 4.571801) 
(13.999001 4.565516 4.565516) 
(14.025974 4.559233 4.559233) 
(14.052947 4.552952 4.552952) 
(14.079920 4.546673 4.546673) 
(14.106893 4.540396 4.540396) 
(14.133866 4.534122 4.534122) 
(14.160839 4.527849 4.527849) 
(14.187812 4.521580 4.521580) 
(14.214785 4.515312 4.515312) 
(14.241758 4.509048 4.509048) 
(14.268731 4.502786 4.502786) 
(14.295704 4.496527 4.496527) 
(14.322677 4.490271 4.490271) 
(14.349650 4.484019 4.484019) 
(14.376623 4.477769 4.477769) 
(14.403596 4.471522 4.471522) 
(14.430569 4.465279 4.465279) 
(14.457542 4.459040 4.459040) 
(14.484515 4.452804 4.452804) 
(14.511489 4.446571 4.446571) 
(14.538462 4.440342 4.440342) 
(14.565435 4.434118 4.434118) 
(14.592408 4.427897 4.427897) 
(14.619381 4.421680 4.421680) 
(14.646354 4.415467 4.415467) 
(14.673327 4.409259 4.409259) 
(14.700300 4.403055 4.403055) 
(14.727273 4.396855 4.396855) 
(14.754246 4.390660 4.390660) 
(14.781219 4.384469 4.384469) 
(14.808192 4.378284 4.378284) 
(14.835165 4.372103 4.372103) 
(14.862138 4.365927 4.365927) 
(14.889111 4.359756 4.359756) 
(14.916084 4.353590 4.353590) 
(14.943057 4.347429 4.347429) 
(14.970030 4.341274 4.341274) 
(14.997003 4.335124 4.335124) 
(15.023976 4.328980 4.328980) 
(15.050949 4.322841 4.322841) 
(15.077922 4.316708 4.316708) 
(15.104895 4.310581 4.310581) 
(15.131868 4.304460 4.304460) 
(15.158841 4.298344 4.298344) 
(15.185814 4.292235 4.292235) 
(15.212787 4.286132 4.286132) 
(15.239760 4.280035 4.280035) 
(15.266733 4.273945 4.273945) 
(15.293706 4.267861 4.267861) 
(15.320679 4.261784 4.261784) 
(15.347652 4.255713 4.255713) 
(15.374625 4.249649 4.249649) 
(15.401598 4.243592 4.243592) 
(15.428571 4.237542 4.237542) 
(15.455544 4.231499 4.231499) 
(15.482517 4.225463 4.225463) 
(15.509491 4.219435 4.219435) 
(15.536464 4.213413 4.213413) 
(15.563437 4.207399 4.207399) 
(15.590410 4.201393 4.201393) 
(15.617383 4.195394 4.195394) 
(15.644356 4.189403 4.189403) 
(15.671329 4.183420 4.183420) 
(15.698302 4.177445 4.177445) 
(15.725275 4.171477 4.171477) 
(15.752248 4.165518 4.165518) 
(15.779221 4.159567 4.159567) 
(15.806194 4.153624 4.153624) 
(15.833167 4.147689 4.147689) 
(15.860140 4.141763 4.141763) 
(15.887113 4.135846 4.135846) 
(15.914086 4.129937 4.129937) 
(15.941059 4.124037 4.124037) 
(15.968032 4.118145 4.118145) 
(15.995005 4.112263 4.112263) 
(16.021978 4.106389 4.106389) 
(16.048951 4.100525 4.100525) 
(16.075924 4.094669 4.094669) 
(16.102897 4.088823 4.088823) 
(16.129870 4.082987 4.082987) 
(16.156843 4.077159 4.077159) 
(16.183816 4.071342 4.071342) 
(16.210789 4.065534 4.065534) 
(16.237762 4.059735 4.059735) 
(16.264735 4.053947 4.053947) 
(16.291708 4.048168 4.048168) 
(16.318681 4.042399 4.042399) 
(16.345654 4.036641 4.036641) 
(16.372627 4.030892 4.030892) 
(16.399600 4.025154 4.025154) 
(16.426573 4.019426 4.019426) 
(16.453546 4.013708 4.013708) 
(16.480519 4.008001 4.008001) 
(16.507493 4.002305 4.002305) 
(16.534466 3.996619 3.996619) 
(16.561439 3.990944 3.990944) 
(16.588412 3.985279 3.985279) 
(16.615385 3.979626 3.979626) 
(16.642358 3.973984 3.973984) 
(16.669331 3.968352 3.968352) 
(16.696304 3.962732 3.962732) 
(16.723277 3.957123 3.957123) 
(16.750250 3.951526 3.951526) 
(16.777223 3.945940 3.945940) 
(16.804196 3.940365 3.940365) 
(16.831169 3.934802 3.934802) 
(16.858142 3.929251 3.929251) 
(16.885115 3.923711 3.923711) 
(16.912088 3.918184 3.918184) 
(16.939061 3.912668 3.912668) 
(16.966034 3.907164 3.907164) 
(16.993007 3.901672 3.901672) 
(17.019980 3.896193 3.896193) 
(17.046953 3.890725 3.890725) 
(17.073926 3.885270 3.885270) 
(17.100899 3.879828 3.879828) 
(17.127872 3.874398 3.874398) 
(17.154845 3.868980 3.868980) 
(17.181818 3.863575 3.863575) 
(17.208791 3.858183 3.858183) 
(17.235764 3.852803 3.852803) 
(17.262737 3.847437 3.847437) 
(17.289710 3.842083 3.842083) 
(17.316683 3.836742 3.836742) 
(17.343656 3.831415 3.831415) 
(17.370629 3.826100 3.826100) 
(17.397602 3.820799 3.820799) 
(17.424575 3.815512 3.815512) 
(17.451548 3.810237 3.810237) 
(17.478521 3.804976 3.804976) 
(17.505495 3.799729 3.799729) 
(17.532468 3.794495 3.794495) 
(17.559441 3.789275 3.789275) 
(17.586414 3.784069 3.784069) 
(17.613387 3.778877 3.778877) 
(17.640360 3.773698 3.773698) 
(17.667333 3.768534 3.768534) 
(17.694306 3.763383 3.763383) 
(17.721279 3.758247 3.758247) 
(17.748252 3.753125 3.753125) 
(17.775225 3.748017 3.748017) 
(17.802198 3.742923 3.742923) 
(17.829171 3.737844 3.737844) 
(17.856144 3.732780 3.732780) 
(17.883117 3.727730 3.727730) 
(17.910090 3.722695 3.722695) 
(17.937063 3.717674 3.717674) 
(17.964036 3.712668 3.712668) 
(17.991009 3.707677 3.707677) 
(18.017982 3.702701 3.702701) 
(18.044955 3.697740 3.697740) 
(18.071928 3.692793 3.692793) 
(18.098901 3.687862 3.687862) 
(18.125874 3.682946 3.682946) 
(18.152847 3.678046 3.678046) 
(18.179820 3.673160 3.673160) 
(18.206793 3.668290 3.668290) 
(18.233766 3.663436 3.663436) 
(18.260739 3.658596 3.658596) 
(18.287712 3.653773 3.653773) 
(18.314685 3.648965 3.648965) 
(18.341658 3.644173 3.644173) 
(18.368631 3.639396 3.639396) 
(18.395604 3.634635 3.634635) 
(18.422577 3.629891 3.629891) 
(18.449550 3.625162 3.625162) 
(18.476523 3.620449 3.620449) 
(18.503497 3.615752 3.615752) 
(18.530470 3.611071 3.611071) 
(18.557443 3.606406 3.606406) 
(18.584416 3.601758 3.601758) 
(18.611389 3.597125 3.597125) 
(18.638362 3.592510 3.592510) 
(18.665335 3.587910 3.587910) 
(18.692308 3.583327 3.583327) 
(18.719281 3.578761 3.578761) 
(18.746254 3.574211 3.574211) 
(18.773227 3.569677 3.569677) 
(18.800200 3.565161 3.565161) 
(18.827173 3.560661 3.560661) 
(18.854146 3.556177 3.556177) 
(18.881119 3.551711 3.551711) 
(18.908092 3.547262 3.547262) 
(18.935065 3.542829 3.542829) 
(18.962038 3.538414 3.538414) 
(18.989011 3.534015 3.534015) 
(19.015984 3.529634 3.529634) 
(19.042957 3.525270 3.525270) 
(19.069930 3.520922 3.520922) 
(19.096903 3.516593 3.516593) 
(19.123876 3.512280 3.512280) 
(19.150849 3.507985 3.507985) 
(19.177822 3.503707 3.503707) 
(19.204795 3.499447 3.499447) 
(19.231768 3.495204 3.495204) 
(19.258741 3.490978 3.490978) 
(19.285714 3.486771 3.486771) 
(19.312687 3.482580 3.482580) 
(19.339660 3.478408 3.478408) 
(19.366633 3.474253 3.474253) 
(19.393606 3.470116 3.470116) 
(19.420579 3.465997 3.465997) 
(19.447552 3.461895 3.461895) 
(19.474525 3.457812 3.457812) 
(19.501499 3.453746 3.453746) 
(19.528472 3.449698 3.449698) 
(19.555445 3.445669 3.445669) 
(19.582418 3.441657 3.441657) 
(19.609391 3.437664 3.437664) 
(19.636364 3.433688 3.433688) 
(19.663337 3.429731 3.429731) 
(19.690310 3.425792 3.425792) 
(19.717283 3.421871 3.421871) 
(19.744256 3.417969 3.417969) 
(19.771229 3.414084 3.414084) 
(19.798202 3.410218 3.410218) 
(19.825175 3.406371 3.406371) 
(19.852148 3.402542 3.402542) 
(19.879121 3.398731 3.398731) 
(19.906094 3.394939 3.394939) 
(19.933067 3.391165 3.391165) 
(19.960040 3.387410 3.387410) 
(19.987013 3.383674 3.383674) 
(20.013986 3.379956 3.379956) 
(20.040959 3.376257 3.376257) 
(20.067932 3.372576 3.372576) 
(20.094905 3.368914 3.368914) 
(20.121878 3.365271 3.365271) 
(20.148851 3.361647 3.361647) 
(20.175824 3.358041 3.358041) 
(20.202797 3.354454 3.354454) 
(20.229770 3.350886 3.350886) 
(20.256743 3.347337 3.347337) 
(20.283716 3.343807 3.343807) 
(20.310689 3.340296 3.340296) 
(20.337662 3.336803 3.336803) 
(20.364635 3.333330 3.333330) 
(20.391608 3.329875 3.329875) 
(20.418581 3.326440 3.326440) 
(20.445554 3.323024 3.323024) 
(20.472527 3.319626 3.319626) 
(20.499500 3.316248 3.316248) 
(20.526474 3.312889 3.312889) 
(20.553447 3.309549 3.309549) 
(20.580420 3.306228 3.306228) 
(20.607393 3.302926 3.302926) 
(20.634366 3.299644 3.299644) 
(20.661339 3.296380 3.296380) 
(20.688312 3.293136 3.293136) 
(20.715285 3.289911 3.289911) 
(20.742258 3.286705 3.286705) 
(20.769231 3.283518 3.283518) 
(20.796204 3.280351 3.280351) 
(20.823177 3.277203 3.277203) 
(20.850150 3.274074 3.274074) 
(20.877123 3.270965 3.270965) 
(20.904096 3.267875 3.267875) 
(20.931069 3.264804 3.264804) 
(20.958042 3.261752 3.261752) 
(20.985015 3.258720 3.258720) 
(21.011988 3.255707 3.255707) 
(21.038961 3.252714 3.252714) 
(21.065934 3.249740 3.249740) 
(21.092907 3.246785 3.246785) 
(21.119880 3.243849 3.243849) 
(21.146853 3.240933 3.240933) 
(21.173826 3.238037 3.238037) 
(21.200799 3.235159 3.235159) 
(21.227772 3.232301 3.232301) 
(21.254745 3.229463 3.229463) 
(21.281718 3.226644 3.226644) 
(21.308691 3.223844 3.223844) 
(21.335664 3.221063 3.221063) 
(21.362637 3.218302 3.218302) 
(21.389610 3.215561 3.215561) 
(21.416583 3.212838 3.212838) 
(21.443556 3.210136 3.210136) 
(21.470529 3.207452 3.207452) 
(21.497502 3.204788 3.204788) 
(21.524476 3.202143 3.202143) 
(21.551449 3.199518 3.199518) 
(21.578422 3.196912 3.196912) 
(21.605395 3.194325 3.194325) 
(21.632368 3.191757 3.191757) 
(21.659341 3.189209 3.189209) 
(21.686314 3.186681 3.186681) 
(21.713287 3.184171 3.184171) 
(21.740260 3.181681 3.181681) 
(21.767233 3.179210 3.179210) 
(21.794206 3.176758 3.176758) 
(21.821179 3.174326 3.174326) 
(21.848152 3.171913 3.171913) 
(21.875125 3.169519 3.169519) 
(21.902098 3.167145 3.167145) 
(21.929071 3.164789 3.164789) 
(21.956044 3.162453 3.162453) 
(21.983017 3.160136 3.160136) 
(22.009990 3.157838 3.157838) 
(22.036963 3.155559 3.155559) 
(22.063936 3.153299 3.153299) 
(22.090909 3.151059 3.151059) 
(22.117882 3.148837 3.148837) 
(22.144855 3.146635 3.146635) 
(22.171828 3.144451 3.144451) 
(22.198801 3.142287 3.142287) 
(22.225774 3.140141 3.140141) 
(22.252747 3.138015 3.138015) 
(22.279720 3.135907 3.135907) 
(22.306693 3.133818 3.133818) 
(22.333666 3.131749 3.131749) 
(22.360639 3.129698 3.129698) 
(22.387612 3.127665 3.127665) 
(22.414585 3.125652 3.125652) 
(22.441558 3.123657 3.123657) 
(22.468531 3.121681 3.121681) 
(22.495504 3.119724 3.119724) 
(22.522478 3.117786 3.117786) 
(22.549451 3.115866 3.115866) 
(22.576424 3.113964 3.113964) 
(22.603397 3.112082 3.112082) 
(22.630370 3.110217 3.110217) 
(22.657343 3.108371 3.108371) 
(22.684316 3.106544 3.106544) 
(22.711289 3.104735 3.104735) 
(22.738262 3.102944 3.102944) 
(22.765235 3.101172 3.101172) 
(22.792208 3.099418 3.099418) 
(22.819181 3.097682 3.097682) 
(22.846154 3.095965 3.095965) 
(22.873127 3.094265 3.094265) 
(22.900100 3.092584 3.092584) 
(22.927073 3.090921 3.090921) 
(22.954046 3.089276 3.089276) 
(22.981019 3.087648 3.087648) 
(23.007992 3.086039 3.086039) 
(23.034965 3.084448 3.084448) 
(23.061938 3.082874 3.082874) 
(23.088911 3.081318 3.081318) 
(23.115884 3.079780 3.079780) 
(23.142857 3.078260 3.078260) 
(23.169830 3.076757 3.076757) 
(23.196803 3.075271 3.075271) 
(23.223776 3.073804 3.073804) 
(23.250749 3.072353 3.072353) 
(23.277722 3.070920 3.070920) 
(23.304695 3.069505 3.069505) 
(23.331668 3.068107 3.068107) 
(23.358641 3.066726 3.066726) 
(23.385614 3.065362 3.065362) 
(23.412587 3.064015 3.064015) 
(23.439560 3.062685 3.062685) 
(23.466533 3.061372 3.061372) 
(23.493506 3.060076 3.060076) 
(23.520480 3.058797 3.058797) 
(23.547453 3.057535 3.057535) 
(23.574426 3.056290 3.056290) 
(23.601399 3.055061 3.055061) 
(23.628372 3.053849 3.053849) 
(23.655345 3.052653 3.052653) 
(23.682318 3.051473 3.051473) 
(23.709291 3.050310 3.050310) 
(23.736264 3.049164 3.049164) 
(23.763237 3.048033 3.048033) 
(23.790210 3.046919 3.046919) 
(23.817183 3.045821 3.045821) 
(23.844156 3.044739 3.044739) 
(23.871129 3.043673 3.043673) 
(23.898102 3.042622 3.042622) 
(23.925075 3.041588 3.041588) 
(23.952048 3.040569 3.040569) 
(23.979021 3.039565 3.039565) 
(24.005994 3.038578 3.038578) 
(24.032967 3.037605 3.037605) 
(24.059940 3.036649 3.036649) 
(24.086913 3.035707 3.035707) 
(24.113886 3.034780 3.034780) 
(24.140859 3.033869 3.033869) 
(24.167832 3.032973 3.032973) 
(24.194805 3.032092 3.032092) 
(24.221778 3.031225 3.031225) 
(24.248751 3.030373 3.030373) 
(24.275724 3.029536 3.029536) 
(24.302697 3.028714 3.028714) 
(24.329670 3.027906 3.027906) 
(24.356643 3.027112 3.027112) 
(24.383616 3.026333 3.026333) 
(24.410589 3.025568 3.025568) 
(24.437562 3.024817 3.024817) 
(24.464535 3.024080 3.024080) 
(24.491508 3.023357 3.023357) 
(24.518482 3.022648 3.022648) 
(24.545455 3.021953 3.021953) 
(24.572428 3.021271 3.021271) 
(24.599401 3.020603 3.020603) 
(24.626374 3.019948 3.019948) 
(24.653347 3.019306 3.019306) 
(24.680320 3.018678 3.018678) 
(24.707293 3.018063 3.018063) 
(24.734266 3.017460 3.017460) 
(24.761239 3.016871 3.016871) 
(24.788212 3.016294 3.016294) 
(24.815185 3.015731 3.015731) 
(24.842158 3.015179 3.015179) 
(24.869131 3.014640 3.014640) 
(24.896104 3.014114 3.014114) 
(24.923077 3.013599 3.013599) 
(24.950050 3.013097 3.013097) 
(24.977023 3.012607 3.012607) 
(25.003996 3.012128 3.012128) 
(25.030969 3.011662 3.011662) 