/*--------------------------------*- C++ -*----------------------------------*\
| =========                 |                                                 |
| \\      /  F ield         | OpenFOAM: The Open Source CFD Toolbox           |
|  \\    /   O peration     | Version:  5.x                                   |
|   \\  /    A nd           | Web:      www.OpenFOAM.org                      |
|    \\/     M anipulation  |                                                 |
\*---------------------------------------------------------------------------*/
/*   Windows 32 and 64 bit porting by blueCAPE: http://www.bluecape.com.pt   *\
|  Based on Windows porting (2.0.x v4) by Symscape: http://www.symscape.com   |
\*---------------------------------------------------------------------------*/
FoamFile
{
    version     2.0;
    format      ascii;
    class       extendedFeatureEdgeMesh;
    location    "constant/extendedFeatureEdgeMesh";
    object      pipe_superfine.extendedFeatureEdgeMesh;
}
// * * * * * * * * * * * * * * * * * * * * * * * * * * * * * * * * * * * * * //

// points

495
(
(0 0.102078 0.0965514)
(0 0.0977237 0.101042)
(0 0.0155878 0.0803836)
(0 0.0138761 0.0743678)
(0 0.0572573 0.113915)
(0 0.0511092 0.112766)
(0 0.0451489 0.11087)
(0 0.0394669 0.108255)
(0 0.0341491 0.104963)
(0 0.0292763 0.101042)
(0 0.0249222 0.0965514)
(0 0.021153 0.0915601)
(0 0.0180257 0.0861435)
(0 0.0129167 0.0681872)
(0 0.0127241 0.0619356)
(0 0.0133012 0.0557077)
(0 0.0146393 0.0495979)
(0 0.0195059 0.0381)
(0 0.0229607 0.0328862)
(0 0.016718 0.0436989)
(0 0.0270301 0.0281364)
(0 0.0316523 0.0239227)
(0 0.0367572 0.020309)
(0 0.0422676 0.01735)
(0 0.0480998 0.0150906)
(0 0.0541655 0.013565)
(0 0.0603727 0.0127963)
(0 0.0666273 0.0127963)
(0 0.0728345 0.013565)
(0 0.0789002 0.0150906)
(0 0.0847324 0.01735)
(0 0.0902428 0.020309)
(0 0.0953477 0.0239227)
(0 0.0999699 0.0281364)
(0 0.104039 0.0328862)
(0 0.107494 0.0381)
(0 0.110282 0.0436989)
(0 0.112361 0.0495979)
(0 0.113699 0.0557077)
(0 0.114276 0.0619356)
(0 0.114083 0.0681872)
(0 0.113124 0.0743678)
(0 0.111412 0.0803836)
(0 0.108974 0.0861435)
(0 0.105847 0.0915601)
(0 0.0928509 0.104963)
(0 0.0875332 0.108255)
(0 0.0818511 0.11087)
(0 0.0758908 0.112766)
(0 0.0635 0.1143)
(0 0.0697427 0.113915)
(0 0.0230883 0.0551024)
(0 0.0246082 0.0496778)
(0 0.0223212 0.0606833)
(0 0.0223212 0.0663167)
(0 0.0230883 0.0718976)
(0 0.0246082 0.0773222)
(0 0.0268525 0.0824892)
(0 0.0297796 0.0873025)
(0 0.0333348 0.0916724)
(0 0.0374518 0.0955175)
(0 0.0420542 0.0987662)
(0 0.047056 0.101358)
(0 0.0523641 0.103244)
(0 0.0578797 0.104391)
(0 0.0635 0.104775)
(0 0.0691203 0.104391)
(0 0.0746359 0.103244)
(0 0.079944 0.101358)
(0 0.0849458 0.0987662)
(0 0.0578797 0.0226094)
(0 0.0635 0.022225)
(0 0.0523641 0.0237556)
(0 0.047056 0.0256421)
(0 0.0420542 0.0282338)
(0 0.0374518 0.0314825)
(0 0.0333348 0.0353276)
(0 0.0297796 0.0396975)
(0 0.0268525 0.0445108)
(0 0.102392 0.0496778)
(0 0.103912 0.0551024)
(0 0.100148 0.0445108)
(0 0.0972204 0.0396975)
(0 0.0936653 0.0353276)
(0 0.0895482 0.0314825)
(0 0.0849458 0.0282338)
(0 0.079944 0.0256421)
(0 0.0746359 0.0237556)
(0 0.0691203 0.0226094)
(0 0.0895482 0.0955175)
(0 0.0936653 0.0916724)
(0 0.0972204 0.0873025)
(0 0.100148 0.0824892)
(0 0.102392 0.0773222)
(0 0.103912 0.0718976)
(0 0.104679 0.0663167)
(0 0.104679 0.0606833)
(0.0203473 0.0621247 0.0713024)
(0.0203473 0.0613585 0.0711432)
(0.0203473 0.0607913 0.0709416)
(0.0203473 0.0603377 0.0707804)
(0.0203473 0.059536 0.070365)
(0.0203473 0.0593758 0.070282)
(0.0203473 0.0584907 0.0696572)
(0.0203473 0.0584029 0.0695751)
(0.0203473 0.057699 0.0689178)
(0.0203473 0.0574332 0.068591)
(0.0203473 0.0570153 0.0680774)
(0.0203473 0.05664 0.0674602)
(0.0203473 0.0564524 0.0671518)
(0.0203473 0.0560447 0.0662132)
(0.0203473 0.0560208 0.0661581)
(0.0203473 0.0557285 0.0651149)
(0.0203473 0.0556958 0.0648766)
(0.0203473 0.055581 0.0640417)
(0.0203473 0.055581 0.0635)
(0.0203473 0.055581 0.0629583)
(0.0203473 0.0556958 0.0621234)
(0.0203473 0.0557285 0.0618851)
(0.0203473 0.0560208 0.0608419)
(0.0203473 0.0560447 0.0607868)
(0.0203473 0.0564524 0.0598482)
(0.0203473 0.05664 0.0595398)
(0.0203473 0.0570153 0.0589226)
(0.0203473 0.0574332 0.058409)
(0.0203473 0.057699 0.0580822)
(0.0203473 0.0584029 0.0574249)
(0.0203473 0.0584907 0.0573428)
(0.0203473 0.0593758 0.0567181)
(0.0203473 0.059536 0.056635)
(0.0203473 0.0603377 0.0562196)
(0.0203473 0.0607913 0.0560584)
(0.0203473 0.0613585 0.0558568)
(0.0203473 0.0621247 0.0556976)
(0.0203473 0.0624192 0.0556364)
(0.0203473 0.0635 0.0555625)
(0.0203473 0.0645808 0.0556364)
(0.0203473 0.0648753 0.0556976)
(0.0203473 0.0656415 0.0558568)
(0.0203473 0.0662087 0.0560584)
(0.0203473 0.0666623 0.0562196)
(0.0203473 0.067464 0.056635)
(0.0203473 0.0676242 0.0567181)
(0.0203473 0.0685093 0.0573428)
(0.0203473 0.0685971 0.0574249)
(0.0203473 0.069301 0.0580822)
(0.0203473 0.0695668 0.058409)
(0.0203473 0.0699847 0.0589226)
(0.0203473 0.07036 0.0595398)
(0.0203473 0.0705476 0.0598482)
(0.0203473 0.0709552 0.0607868)
(0.0203473 0.0709792 0.0608419)
(0.0203473 0.0712715 0.0618851)
(0.0203473 0.0713042 0.0621234)
(0.0203473 0.071419 0.0629583)
(0.0203473 0.071419 0.0635)
(0.0203473 0.071419 0.0640417)
(0.0203473 0.0713042 0.0648766)
(0.0203473 0.0712715 0.0651149)
(0.0203473 0.0709792 0.0661581)
(0.0203473 0.0709552 0.0662132)
(0.0203473 0.0705476 0.0671518)
(0.0203473 0.07036 0.0674602)
(0.0203473 0.0699847 0.0680774)
(0.0203473 0.0695668 0.068591)
(0.0203473 0.069301 0.0689178)
(0.0203473 0.0685971 0.0695751)
(0.0203473 0.0685093 0.0696572)
(0.0203473 0.0676242 0.070282)
(0.0203473 0.067464 0.070365)
(0.0203473 0.0666623 0.0707804)
(0.0203473 0.0662087 0.0709416)
(0.0203473 0.0656415 0.0711432)
(0.0203473 0.0648753 0.0713024)
(0.0203473 0.0645808 0.0713636)
(0.0203473 0.0635 0.0714375)
(0.0203473 0.0624192 0.0713636)
(0.0330473 0.0686021 0.0695805)
(0.0330473 0.0678617 0.0701317)
(0.0330473 0.0692735 0.068947)
(0.0330473 0.0695702 0.0685935)
(0.0330473 0.0698669 0.0682399)
(0.0330473 0.0703741 0.0674687)
(0.0330473 0.071104 0.0657765)
(0.0330473 0.0709462 0.0662102)
(0.0330473 0.0707883 0.0666439)
(0.0330473 0.0713169 0.0648783)
(0.0330473 0.0714241 0.0639615)
(0.0330473 0.0714241 0.0635)
(0.0330473 0.0714241 0.0630385)
(0.0330473 0.0713169 0.0621217)
(0.0330473 0.071104 0.0612235)
(0.0330473 0.0709462 0.0607898)
(0.0330473 0.0707883 0.0603561)
(0.0330473 0.0703741 0.0595312)
(0.0330473 0.0698669 0.0587601)
(0.0330473 0.0695702 0.0584065)
(0.0330473 0.0692735 0.058053)
(0.0330473 0.0686021 0.0574195)
(0.0330473 0.0678617 0.0568683)
(0.0330473 0.067462 0.0566376)
(0.0330473 0.0670623 0.0564068)
(0.0330473 0.0662148 0.0560412)
(0.0330473 0.0653305 0.0557765)
(0.0330473 0.064876 0.0556963)
(0.0330473 0.0644215 0.0556162)
(0.0330473 0.0635 0.0555625)
(0.0330473 0.0625785 0.0556162)
(0.0330473 0.062124 0.0556963)
(0.0330473 0.0616695 0.0557765)
(0.0330473 0.0607852 0.0560412)
(0.0330473 0.0599377 0.0564068)
(0.0330473 0.059538 0.0566376)
(0.0330473 0.0591383 0.0568683)
(0.0330473 0.0583979 0.0574195)
(0.0330473 0.0577265 0.058053)
(0.0330473 0.0574298 0.0584065)
(0.0330473 0.0571331 0.0587601)
(0.0330473 0.0566259 0.0595312)
(0.0330473 0.055896 0.0612235)
(0.0330473 0.0560538 0.0607898)
(0.0330473 0.0562117 0.0603561)
(0.0330473 0.0556831 0.0621217)
(0.0330473 0.0555759 0.0630385)
(0.0330473 0.0555759 0.0635)
(0.0330473 0.0555759 0.0639615)
(0.0330473 0.0556831 0.0648783)
(0.0330473 0.055896 0.0657765)
(0.0330473 0.0560538 0.0662102)
(0.0330473 0.0562117 0.0666439)
(0.0330473 0.0566259 0.0674687)
(0.0330473 0.0571331 0.0682399)
(0.0330473 0.0574298 0.0685935)
(0.0330473 0.0577265 0.068947)
(0.0330473 0.0583979 0.0695805)
(0.0330473 0.0591383 0.0701317)
(0.0330473 0.059538 0.0703624)
(0.0330473 0.0599377 0.0705932)
(0.0330473 0.0607852 0.0709588)
(0.0330473 0.0616695 0.0712235)
(0.0330473 0.062124 0.0713037)
(0.0330473 0.0625785 0.0713838)
(0.0330473 0.0635 0.0714375)
(0.0330473 0.0644215 0.0713838)
(0.0330473 0.064876 0.0713037)
(0.0330473 0.0653305 0.0712235)
(0.0330473 0.0662148 0.0709588)
(0.0330473 0.0670623 0.0705932)
(0.0330473 0.067462 0.0703624)
(0.116086 0.0439535 0.00979657)
(0.116086 0.0503203 0.00789049)
(0.116086 0.0378511 0.0124289)
(0.116086 0.0320956 0.0157519)
(0.116086 0.0267647 0.0197206)
(0.116086 0.0219306 0.0242813)
(0.116086 0.0176587 0.0293724)
(0.116086 0.0140067 0.034925)
(0.116086 0.0110239 0.040864)
(0.116086 0.0087509 0.0471092)
(0.116086 0.00721824 0.053576)
(0.116086 0.00644669 0.060177)
(0.116086 0.00644669 0.066823)
(0.116086 0.00721824 0.073424)
(0.116086 0.0087509 0.0798908)
(0.116086 0.0110239 0.086136)
(0.116086 0.0140067 0.092075)
(0.116086 0.0176587 0.0976276)
(0.116086 0.0219306 0.102719)
(0.116086 0.0267647 0.107279)
(0.116086 0.0320956 0.111248)
(0.116086 0.0378511 0.114571)
(0.116086 0.0439535 0.117203)
(0.116086 0.0503203 0.119109)
(0.116086 0.0568653 0.120264)
(0.116086 0.0635 0.12065)
(0.116086 0.0701347 0.120264)
(0.116086 0.0766797 0.119109)
(0.116086 0.0830465 0.117203)
(0.116086 0.0891489 0.114571)
(0.116086 0.0949044 0.111248)
(0.116086 0.100235 0.107279)
(0.116086 0.105069 0.102719)
(0.116086 0.109341 0.0976276)
(0.116086 0.112993 0.092075)
(0.116086 0.115976 0.086136)
(0.116086 0.118249 0.0798908)
(0.116086 0.119782 0.073424)
(0.116086 0.120553 0.066823)
(0.116086 0.120553 0.060177)
(0.116086 0.119782 0.053576)
(0.116086 0.118249 0.0471092)
(0.116086 0.115976 0.040864)
(0.116086 0.112993 0.034925)
(0.116086 0.109341 0.0293724)
(0.116086 0.105069 0.0242813)
(0.116086 0.100235 0.0197206)
(0.116086 0.0949044 0.0157519)
(0.116086 0.0891489 0.0124289)
(0.116086 0.0830465 0.00979657)
(0.116086 0.0766797 0.00789049)
(0.116086 0.0701347 0.00673643)
(0.116086 0.0635 0.00635)
(0.116086 0.0568653 0.00673643)
(0.116086 0.0669981 0.126904)
(0.116086 0.0635 0.127)
(0.116086 0.0600019 0.126904)
(0.116086 0.0530482 0.126134)
(0.116086 0.0462214 0.124604)
(0.116086 0.0396044 0.122332)
(0.116086 0.0332773 0.119347)
(0.116086 0.0273172 0.115683)
(0.116086 0.0217963 0.111386)
(0.116086 0.0167815 0.106507)
(0.116086 0.0123339 0.101107)
(0.116086 0.00850739 0.09525)
(0.116086 0.0053484 0.0890077)
(0.116086 0.00289528 0.0824557)
(0.116086 0.00117783 0.0756736)
(0.116086 0.000216886 0.0687438)
(0.116086 2.41101e-005 0.0617503)
(0.116086 0.000601851 0.0547781)
(0.116086 0.00194308 0.0479117)
(0.116086 0.00403154 0.0412345)
(0.116086 0.00684186 0.0348276)
(0.116086 0.0103399 0.0287688)
(0.116086 0.0144833 0.0231315)
(0.116086 0.0192217 0.0179843)
(0.116086 0.0244975 0.0133896)
(0.116086 0.0302468 0.00940312)
(0.116086 0.0363997 0.00607332)
(0.116086 0.0428816 0.00344061)
(0.116086 0.0496138 0.00153693)
(0.116086 0.0565145 0.000385404)
(0.116086 0.0635 0)
(0.116086 0.0704855 0.000385404)
(0.116086 0.0773863 0.00153693)
(0.116086 0.0841184 0.00344061)
(0.116086 0.0906003 0.00607332)
(0.116086 0.0967532 0.00940312)
(0.116086 0.102503 0.0133896)
(0.116086 0.107778 0.0179843)
(0.116086 0.112517 0.0231315)
(0.116086 0.11666 0.0287688)
(0.116086 0.120158 0.0348276)
(0.116086 0.122969 0.0412345)
(0.116086 0.125057 0.0479117)
(0.116086 0.126398 0.0547781)
(0.116086 0.126976 0.0617503)
(0.116086 0.126783 0.0687438)
(0.116086 0.125822 0.0756736)
(0.116086 0.124105 0.0824557)
(0.116086 0.121652 0.0890077)
(0.116086 0.118493 0.09525)
(0.116086 0.114666 0.101107)
(0.116086 0.110219 0.106507)
(0.116086 0.105204 0.111386)
(0.116086 0.0996828 0.115683)
(0.116086 0.0937227 0.119347)
(0.116086 0.0873957 0.122332)
(0.116086 0.0807786 0.124604)
(0.116086 0.0739518 0.126134)
(0.0203473 0.0615882 0.0789396)
(0.0203473 0.0608037 0.078793)
(0.0330473 0.0609393 0.0788453)
(0.0330473 0.062643 0.0790339)
(0.0203473 0.0635 0.0790575)
(0.0203473 0.0483027 0.0668283)
(0.0203473 0.0482048 0.0661975)
(0.0330473 0.0482311 0.0664825)
(0.0330473 0.0486518 0.0681441)
(0.0203473 0.0597053 0.0785876)
(0.0203473 0.058184 0.0781036)
(0.0203473 0.05788 0.0780069)
(0.0203473 0.0561398 0.0772064)
(0.0203473 0.0557329 0.0769544)
(0.0203473 0.0545113 0.076198)
(0.0203473 0.0535163 0.0753973)
(0.0203473 0.053019 0.0749971)
(0.0330473 0.052054 0.0740368)
(0.0330473 0.0532826 0.075232)
(0.0203473 0.0516856 0.073622)
(0.0330473 0.0516 0.0734856)
(0.0203473 0.0515895 0.0734947)
(0.0330473 0.0509643 0.0727137)
(0.0203473 0.0505312 0.0720934)
(0.0330473 0.0500268 0.0712788)
(0.0203473 0.0500524 0.071264)
(0.0203473 0.0495735 0.0704346)
(0.0203473 0.048889 0.0688175)
(0.0330473 0.0489022 0.0688129)
(0.0203473 0.0488269 0.0686706)
(0.0203473 0.049173 0.0574359)
(0.0203473 0.0500268 0.0557212)
(0.0330473 0.0496188 0.0564753)
(0.0330473 0.0489302 0.058045)
(0.0203473 0.0489078 0.0581886)
(0.0203473 0.0485364 0.0592425)
(0.0330473 0.0488876 0.0581812)
(0.0330473 0.0484186 0.0596809)
(0.0203473 0.0481949 0.060802)
(0.0203473 0.0481266 0.0611136)
(0.0330473 0.0481995 0.0608025)
(0.0330473 0.04809 0.0613631)
(0.0203473 0.0479499 0.0630209)
(0.0203473 0.0479646 0.0634993)
(0.0203473 0.0480089 0.0649355)
(0.0203473 0.0510848 0.0541245)
(0.0203473 0.0516041 0.0535185)
(0.0330473 0.0514909 0.0536097)
(0.0330473 0.0504758 0.0549909)
(0.0330473 0.0500473 0.0557331)
(0.0203473 0.0682163 0.0486746)
(0.0203473 0.0688115 0.0489052)
(0.0330473 0.0685515 0.0487855)
(0.0330473 0.0669021 0.048319)
(0.0203473 0.0523311 0.0526699)
(0.0203473 0.0535109 0.0515944)
(0.0203473 0.0537466 0.0513795)
(0.0203473 0.05531 0.0502728)
(0.0203473 0.0557317 0.0500463)
(0.0203473 0.0569976 0.0493665)
(0.0203473 0.0581885 0.0489052)
(0.0203473 0.0587837 0.0486746)
(0.0330473 0.0600979 0.048319)
(0.0330473 0.0584485 0.0487855)
(0.0203473 0.0606413 0.0482074)
(0.0330473 0.0608023 0.0482015)
(0.0203473 0.0607996 0.0481878)
(0.0330473 0.0617886 0.0480369)
(0.0203473 0.0625423 0.047972)
(0.0330473 0.0635 0.0479425)
(0.0203473 0.0635 0.047972)
(0.0203473 0.0644577 0.047972)
(0.0203473 0.0662004 0.0481878)
(0.0330473 0.0661978 0.0482015)
(0.0203473 0.0663587 0.0482074)
(0.0203473 0.0759152 0.0541245)
(0.0203473 0.0769732 0.0557212)
(0.0330473 0.0765242 0.0549909)
(0.0330473 0.0755091 0.0536097)
(0.0203473 0.075396 0.0535185)
(0.0203473 0.0746689 0.0526699)
(0.0330473 0.0754124 0.0535047)
(0.0330473 0.0743482 0.0523487)
(0.0203473 0.0734891 0.0515944)
(0.0203473 0.0732534 0.0513795)
(0.0330473 0.0734864 0.0515981)
(0.0330473 0.0730556 0.051223)
(0.0203473 0.07169 0.0502728)
(0.0203473 0.0712683 0.0500463)
(0.0203473 0.0700024 0.0493665)
(0.0203473 0.077827 0.0574359)
(0.0203473 0.0780922 0.0581886)
(0.0330473 0.0780698 0.058045)
(0.0330473 0.0773813 0.0564753)
(0.0330473 0.0769527 0.0557331)
(0.0203473 0.073981 0.0749971)
(0.0203473 0.0734837 0.0753973)
(0.0330473 0.0737174 0.075232)
(0.0330473 0.074946 0.0740368)
(0.0203473 0.0784636 0.0592425)
(0.0203473 0.0788051 0.060802)
(0.0203473 0.0788734 0.0611136)
(0.0203473 0.0790501 0.0630209)
(0.0203473 0.0790354 0.0634993)
(0.0203473 0.0789911 0.0649355)
(0.0203473 0.0787952 0.0661975)
(0.0203473 0.0786973 0.0668283)
(0.0330473 0.0783482 0.0681441)
(0.0330473 0.0787689 0.0664825)
(0.0203473 0.0781731 0.0686706)
(0.0330473 0.0780978 0.0688129)
(0.0203473 0.078111 0.0688175)
(0.0330473 0.0777471 0.0697494)
(0.0203473 0.0774265 0.0704346)
(0.0330473 0.0769732 0.0712788)
(0.0203473 0.0769476 0.071264)
(0.0203473 0.0764688 0.0720934)
(0.0203473 0.0754105 0.0734947)
(0.0330473 0.0754 0.0734856)
(0.0203473 0.0753144 0.073622)
(0.0203473 0.0654118 0.0789396)
(0.0330473 0.064357 0.0790339)
(0.0330473 0.0660607 0.0788453)
(0.0203473 0.0661963 0.078793)
(0.0203473 0.0672947 0.0785876)
(0.0330473 0.0662 0.0788141)
(0.0330473 0.0677333 0.0784705)
(0.0203473 0.068816 0.0781036)
(0.0203473 0.06912 0.0780069)
(0.0330473 0.0688142 0.0780994)
(0.0330473 0.0693544 0.0779139)
(0.0203473 0.0708601 0.0772064)
(0.0203473 0.0712671 0.0769544)
(0.0203473 0.0724887 0.076198)
)

// edges

479
(
(0 1)
(2 3)
(4 5)
(5 6)
(6 7)
(7 8)
(8 9)
(9 10)
(10 11)
(11 12)
(12 2)
(3 13)
(14 15)
(13 14)
(15 16)
(17 18)
(19 17)
(16 19)
(18 20)
(21 22)
(20 21)
(22 23)
(24 25)
(23 24)
(25 26)
(26 27)
(27 28)
(28 29)
(29 30)
(30 31)
(31 32)
(32 33)
(33 34)
(34 35)
(35 36)
(36 37)
(37 38)
(38 39)
(39 40)
(40 41)
(41 42)
(42 43)
(43 44)
(44 0)
(1 45)
(46 47)
(45 46)
(47 48)
(49 4)
(50 49)
(48 50)
(51 52)
(53 51)
(54 53)
(55 54)
(56 55)
(57 56)
(58 57)
(59 58)
(60 59)
(61 60)
(62 61)
(63 62)
(64 63)
(65 64)
(66 65)
(67 66)
(68 67)
(69 68)
(70 71)
(72 70)
(73 72)
(74 73)
(75 74)
(76 75)
(77 76)
(78 77)
(52 78)
(79 80)
(81 79)
(82 81)
(83 82)
(84 83)
(85 84)
(86 85)
(87 86)
(88 87)
(71 88)
(89 69)
(90 89)
(91 90)
(92 91)
(93 92)
(94 93)
(95 94)
(96 95)
(80 96)
(97 98)
(98 99)
(99 100)
(100 101)
(101 102)
(102 103)
(103 104)
(104 105)
(105 106)
(106 107)
(107 108)
(108 109)
(109 110)
(110 111)
(111 112)
(112 113)
(113 114)
(114 115)
(115 116)
(116 117)
(117 118)
(118 119)
(119 120)
(120 121)
(121 122)
(122 123)
(123 124)
(124 125)
(125 126)
(126 127)
(127 128)
(128 129)
(129 130)
(130 131)
(131 132)
(132 133)
(133 134)
(134 135)
(135 136)
(136 137)
(137 138)
(138 139)
(139 140)
(140 141)
(141 142)
(142 143)
(143 144)
(144 145)
(145 146)
(146 147)
(147 148)
(148 149)
(149 150)
(150 151)
(151 152)
(152 153)
(153 154)
(154 155)
(155 156)
(156 157)
(157 158)
(158 159)
(159 160)
(160 161)
(161 162)
(162 163)
(163 164)
(164 165)
(165 166)
(166 167)
(167 168)
(168 169)
(169 170)
(170 171)
(171 172)
(172 173)
(173 174)
(174 175)
(175 176)
(176 97)
(177 178)
(179 177)
(180 179)
(181 180)
(182 181)
(183 184)
(184 185)
(185 182)
(186 183)
(187 186)
(188 187)
(189 188)
(190 189)
(191 190)
(192 191)
(193 192)
(194 193)
(195 194)
(196 195)
(197 196)
(198 197)
(199 198)
(200 199)
(201 200)
(202 201)
(203 202)
(204 203)
(205 204)
(206 205)
(207 206)
(208 207)
(209 208)
(210 209)
(211 210)
(212 211)
(213 212)
(214 213)
(215 214)
(216 215)
(217 216)
(218 217)
(219 220)
(220 221)
(221 218)
(222 219)
(223 222)
(224 223)
(225 224)
(226 225)
(227 226)
(228 227)
(229 228)
(230 229)
(231 230)
(232 231)
(233 232)
(234 233)
(235 234)
(236 235)
(237 236)
(238 237)
(239 238)
(240 239)
(241 240)
(242 241)
(243 242)
(244 243)
(245 244)
(246 245)
(247 246)
(248 247)
(178 248)
(249 250)
(251 249)
(252 251)
(253 252)
(254 253)
(255 254)
(256 255)
(257 256)
(258 257)
(259 258)
(260 259)
(261 260)
(262 261)
(263 262)
(264 263)
(265 264)
(266 265)
(267 266)
(268 267)
(269 268)
(270 269)
(271 270)
(272 271)
(273 272)
(274 273)
(275 274)
(276 275)
(277 276)
(278 277)
(279 278)
(280 279)
(281 280)
(282 281)
(283 282)
(284 283)
(285 284)
(286 285)
(287 286)
(288 287)
(289 288)
(290 289)
(291 290)
(292 291)
(293 292)
(294 293)
(295 294)
(296 295)
(297 296)
(298 297)
(299 298)
(300 299)
(301 300)
(302 301)
(250 302)
(303 304)
(304 305)
(305 306)
(306 307)
(307 308)
(308 309)
(309 310)
(310 311)
(311 312)
(312 313)
(313 314)
(314 315)
(315 316)
(316 317)
(317 318)
(318 319)
(319 320)
(320 321)
(321 322)
(322 323)
(323 324)
(324 325)
(325 326)
(326 327)
(327 328)
(328 329)
(329 330)
(330 331)
(331 332)
(332 333)
(333 334)
(334 335)
(335 336)
(336 337)
(337 338)
(338 339)
(339 340)
(340 341)
(341 342)
(342 343)
(343 344)
(344 345)
(345 346)
(346 347)
(347 348)
(348 349)
(349 350)
(350 351)
(351 352)
(352 353)
(353 354)
(354 355)
(355 356)
(356 357)
(357 358)
(358 359)
(359 360)
(360 303)
(361 362)
(363 364)
(365 361)
(366 367)
(368 369)
(362 370)
(370 371)
(371 372)
(372 373)
(373 374)
(374 375)
(375 376)
(376 377)
(378 379)
(377 380)
(381 378)
(380 382)
(383 381)
(382 384)
(385 383)
(384 386)
(386 387)
(387 388)
(369 389)
(388 390)
(390 366)
(391 392)
(393 394)
(395 391)
(396 395)
(397 398)
(399 396)
(400 399)
(401 402)
(403 400)
(404 403)
(405 404)
(367 405)
(406 407)
(408 409)
(392 406)
(409 410)
(410 393)
(411 412)
(413 414)
(407 415)
(415 416)
(416 417)
(417 418)
(418 419)
(419 420)
(420 421)
(421 422)
(423 424)
(422 425)
(426 423)
(425 427)
(428 426)
(427 429)
(430 428)
(429 431)
(431 432)
(432 433)
(414 434)
(433 435)
(435 411)
(436 437)
(438 439)
(440 436)
(441 440)
(442 443)
(444 441)
(445 444)
(446 447)
(448 445)
(449 448)
(450 449)
(412 450)
(451 452)
(453 454)
(437 451)
(454 455)
(455 438)
(456 457)
(458 459)
(452 460)
(460 461)
(461 462)
(462 463)
(463 464)
(464 465)
(465 466)
(466 467)
(468 469)
(467 470)
(471 468)
(470 472)
(473 471)
(472 474)
(475 473)
(474 476)
(476 477)
(477 478)
(459 479)
(478 480)
(480 456)
(481 365)
(482 483)
(484 481)
(485 484)
(486 487)
(488 485)
(489 488)
(490 491)
(492 489)
(493 492)
(494 493)
(457 494)
)

// concaveStart mixedStart nonFeatureStart
0 0 0
// internalStart flatStart openStart multipleStart
361 479 479 479
// normals

958
(
(0.865614 0.359468 0.348562)
(-1 0 0)
(0.865614 -0.481598 0.137026)
(-1 -0 0)
(0.865614 -0.0920071 0.492186)
(-1 0 0)
(0.865614 -0.151792 0.477149)
(-1 0 0)
(0.865614 -0.20928 0.454879)
(-1 0 0)
(0.865614 -0.26359 0.425715)
(-1 0 0)
(0.865614 -0.313906 0.390097)
(-1 0 0)
(0.865614 -0.359469 0.348561)
(-1 0 0)
(0.865614 -0.399577 0.301746)
(-1 -0 0)
(0.865614 -0.43363 0.250356)
(-1 -0 0)
(0.865614 -0.461109 0.195171)
(-1 -0 0)
(0.865614 -0.494787 0.0768049)
(-1 -0 0)
(0.865614 -0.498576 -0.0462007)
(-1 -0 0)
(0.865614 -0.500475 0.0154202)
(-1 -0 0)
(0.865614 -0.48912 -0.107118)
(-1 -0 0)
(0.865614 -0.417395 -0.276576)
(-1 0 0)
(0.865614 -0.448219 -0.223187)
(-1 0 0)
(0.865614 -0.472249 -0.166414)
(-1 0 0)
(0.865614 -0.380243 -0.325773)
(-1 0 0)
(0.865614 -0.289298 -0.40868)
(-1 0 0)
(0.865614 -0.337328 -0.370031)
(-1 0 0)
(0.865614 -0.236883 -0.441134)
(-1 0 -0)
(0.865614 -0.122131 -0.485589)
(-1 0 -0)
(0.865614 -0.180878 -0.4669)
(-1 0 -0)
(0.865614 -0.0615321 -0.496917)
(-1 0 -0)
(0.865614 0 -0.500712)
(-1 0 -0)
(0.865614 0.061532 -0.496917)
(-1 0 0)
(0.865614 0.122131 -0.485589)
(-1 0 0)
(0.865614 0.180878 -0.4669)
(-1 0 0)
(0.865614 0.236883 -0.441134)
(-1 0 0)
(0.865614 0.289299 -0.40868)
(-1 0 0)
(0.865614 0.337328 -0.37003)
(-1 0 0)
(0.865614 0.380242 -0.325774)
(-1 0 0)
(0.865614 0.417395 -0.276575)
(-1 0 0)
(0.865614 0.44822 -0.223186)
(-1 0 0)
(0.865614 0.47225 -0.166412)
(-1 0 0)
(0.865614 0.489119 -0.107122)
(-1 0 0)
(0.865614 0.498576 -0.0461999)
(-1 0 0)
(0.865614 0.500475 0.015419)
(-1 0 0)
(0.865614 0.494786 0.0768046)
(-1 0 0)
(0.865614 0.481597 0.13703)
(-1 0 0)
(0.865614 0.46111 0.195167)
(-1 0 0)
(0.865614 0.433629 0.250356)
(-1 0 0)
(0.865614 0.399578 0.301745)
(-1 0 0)
(0.865614 0.313906 0.390097)
(-1 0 0)
(0.865614 0.20928 0.454879)
(-1 0 0)
(0.865614 0.26359 0.425715)
(-1 0 0)
(0.865614 0.151792 0.477149)
(-1 0 0)
(0.865614 -0.0308214 0.499763)
(-1 0 0)
(0.865614 0.0308214 0.499762)
(-1 0 0)
(0.865614 0.0920069 0.492186)
(-1 0 0)
(-1 -0 0)
(-0.853032 0.502506 0.140795)
(-1 0 0)
(-0.853032 0.516997 0.0710603)
(-1 0 0)
(-0.853032 0.521858 0)
(-1 0 0)
(-0.853032 0.516997 -0.0710603)
(-1 0 0)
(-0.853032 0.502506 -0.140795)
(-1 0 0)
(-0.853032 0.478654 -0.207909)
(-1 0 0)
(-0.853032 0.445885 -0.271149)
(-1 0 0)
(-0.853032 0.404811 -0.329338)
(-1 0 0)
(-0.853032 0.356196 -0.381392)
(-1 0 0)
(-0.853032 0.300945 -0.426342)
(-1 0 0)
(-0.853032 0.240089 -0.46335)
(-1 0 0)
(-0.853032 0.174759 -0.491727)
(-1 0 0)
(-0.853033 0.106179 -0.510942)
(-1 0 0)
(-0.853033 0.0356091 -0.520641)
(-1 0 0)
(-0.853033 -0.0356092 -0.520641)
(-1 0 0)
(-0.853033 -0.106179 -0.510942)
(-1 0 0)
(-0.853032 -0.174759 -0.491727)
(-1 0 0)
(-0.853032 -0.240089 -0.46335)
(-1 -0 0)
(-0.853032 0.0356131 0.520641)
(-1 -0 0)
(-0.853032 0.106175 0.510943)
(-1 -0 0)
(-0.853032 0.174759 0.491726)
(-1 -0 0)
(-0.853032 0.240089 0.46335)
(-1 -0 0)
(-0.853032 0.300945 0.426342)
(-1 -0 0)
(-0.853032 0.356196 0.381393)
(-1 -0 0)
(-0.853032 0.404811 0.329338)
(-1 -0 0)
(-0.853032 0.445886 0.271149)
(-1 -0 0)
(-0.853032 0.478654 0.207909)
(-1 0 -0)
(-0.853032 -0.502506 0.140797)
(-1 0 -0)
(-0.853032 -0.478656 0.207904)
(-1 0 -0)
(-0.853033 -0.445884 0.271151)
(-1 0 -0)
(-0.853032 -0.404811 0.329339)
(-1 0 -0)
(-0.853032 -0.356196 0.381393)
(-1 0 -0)
(-0.853032 -0.300945 0.426342)
(-1 0 -0)
(-0.853032 -0.240089 0.46335)
(-1 0 -0)
(-0.853032 -0.174759 0.491726)
(-1 0 -0)
(-0.853032 -0.106175 0.510943)
(-1 0 -0)
(-0.853032 -0.0356131 0.520641)
(-1 0 0)
(-0.853032 -0.300945 -0.426342)
(-1 0 0)
(-0.853032 -0.356196 -0.381392)
(-1 0 0)
(-0.853032 -0.404811 -0.329339)
(-1 0 0)
(-0.853033 -0.445884 -0.271151)
(-1 0 0)
(-0.853032 -0.478656 -0.207904)
(-1 0 0)
(-0.853032 -0.502506 -0.140797)
(-1 0 0)
(-0.853033 -0.516997 -0.0710616)
(-1 0 0)
(-0.853033 -0.521858 0)
(-1 0 -0)
(-0.853033 -0.516997 0.0710616)
(-0.853032 0.106176 -0.510943)
(0.000112133 0.203457 -0.979084)
(-0.853032 0.174762 -0.491726)
(-0.00223675 0.334883 -0.942257)
(-0.853032 0.174755 -0.491728)
(0.00143999 0.334871 -0.942263)
(-0.853032 0.24009 -0.463349)
(0.00140671 0.460067 -0.887883)
(-0.853032 0.240091 -0.463349)
(-0.000247082 0.460069 -0.887883)
(-0.853032 0.300946 -0.426342)
(0.00111915 0.576681 -0.816969)
(-0.853032 0.356184 -0.381406)
(0.000575501 0.682528 -0.730859)
(-0.853032 0.356195 -0.381393)
(0.000575501 0.682552 -0.730837)
(-0.853032 0.404814 -0.329335)
(-0.000223711 0.775717 -0.631081)
(-0.853032 0.40481 -0.329339)
(0.000327418 0.77571 -0.63109)
(-0.853032 0.445887 -0.271147)
(-0.0012784 0.854421 -0.51958)
(-0.853032 0.445882 -0.271156)
(0.00129469 0.854411 -0.519596)
(-0.853032 0.478654 -0.207908)
(0.00145496 0.917211 -0.3984)
(-0.853035 0.478681 -0.207838)
(-0.000749688 0.917269 -0.398268)
(-0.853032 0.502505 -0.140799)
(0.00135902 0.962915 -0.269803)
(-0.853032 0.516997 -0.0710608)
(0.00100702 0.990685 -0.136169)
(-0.853033 0.516998 -0.0710548)
(0.00100702 0.990687 -0.136157)
(-0.853032 0.521858 0)
(0.000400102 1 0)
(-0.853032 0.521858 0)
(0.000400102 1 0)
(-0.853033 0.516998 0.0710554)
(-0.00046296 0.990687 0.136159)
(-0.853032 0.516997 0.0710619)
(0.00100698 0.990685 0.136171)
(-0.853033 0.502505 0.140799)
(0.00135925 0.962915 0.269803)
(-0.85303 0.478683 0.207853)
(-0.00295027 0.917255 0.398289)
(-0.853032 0.478655 0.207906)
(0.00145469 0.917213 0.398396)
(-0.853032 0.445879 0.271161)
(0.00129514 0.854406 0.519605)
(-0.853032 0.445888 0.271145)
(0.00129514 0.854423 0.519576)
(-0.853032 0.404808 0.329342)
(0.000879337 0.775705 0.631095)
(-0.853032 0.40481 0.329339)
(0.000327973 0.77571 0.631089)
(-0.853033 0.356197 0.381391)
(0.000208209 0.682556 0.730833)
(-0.853032 0.356209 0.381381)
(0.000575929 0.682577 0.730813)
(-0.853032 0.300943 0.426344)
(0.00111879 0.576676 0.816972)
(-0.853032 0.240099 0.463345)
(-0.00190067 0.460084 0.887873)
(-0.853033 0.240086 0.463351)
(-0.000247602 0.460061 0.887887)
(-0.853033 0.174762 0.491725)
(-0.00333679 0.334883 0.942254)
(-0.853033 0.174756 0.491727)
(0.00143916 0.334873 0.942262)
(-0.853032 0.106176 0.510943)
(0.00121533 0.203457 0.979083)
(-0.853032 0.106186 0.510941)
(0.000112134 0.203477 0.97908)
(-0.853032 0.0356119 0.520641)
(0.000735301 0.0682407 0.997669)
(-0.853032 -0.0356118 0.520642)
(0 -0.0682405 0.997669)
(-0.853032 -0.106189 0.510941)
(-0.000991196 -0.203482 0.979078)
(-0.853033 -0.106176 0.510942)
(0.000112312 -0.203458 0.979084)
(-0.853033 -0.174753 0.491728)
(-0.00223555 -0.334866 0.942263)
(-0.853033 -0.174765 0.491724)
(0.00143886 -0.33489 0.942256)
(-0.853033 -0.240087 0.46335)
(0.00140757 -0.460062 0.887886)
(-0.853033 -0.240099 0.463344)
(-0.000247604 -0.460085 0.887875)
(-0.853032 -0.30094 0.426346)
(0.00111912 -0.57667 0.816977)
(-0.853035 -0.356238 0.381347)
(0.00057613 -0.682639 0.730755)
(-0.853033 -0.356196 0.381392)
(0.00057613 -0.682554 0.730835)
(-0.853033 -0.404806 0.329344)
(-0.000223262 -0.775702 0.6311)
(-0.853033 -0.404812 0.329337)
(0.000327518 -0.775714 0.631085)
(-0.853033 -0.445884 0.271151)
(-0.00127802 -0.854416 0.519587)
(-0.853033 -0.445886 0.271148)
(0.00129514 -0.854419 0.519582)
(-0.853033 -0.478655 0.207906)
(0.00145495 -0.917213 0.398396)
(-0.853031 -0.478634 0.207961)
(-0.000749672 -0.917168 0.398499)
(-0.853032 -0.502506 0.140794)
(0.001359 -0.962917 0.269793)
(-0.853033 -0.516997 0.0710619)
(0.00100727 -0.990685 0.136171)
(-0.853032 -0.516997 0.0710622)
(0.00100727 -0.990685 0.136172)
(-0.853033 -0.521858 0)
(0.000398929 -1 0)
(-0.853033 -0.521858 0)
(0.000398929 -1 0)
(-0.853033 -0.516997 -0.0710616)
(-0.000464038 -0.990685 -0.13617)
(-0.853032 -0.516997 -0.0710608)
(0.00100731 -0.990685 -0.136169)
(-0.853032 -0.502507 -0.140794)
(0.00135877 -0.962917 -0.269793)
(-0.853035 -0.478634 -0.207947)
(-0.00295754 -0.917174 -0.398475)
(-0.853033 -0.478654 -0.207908)
(0.00145523 -0.917211 -0.3984)
(-0.853033 -0.445888 -0.271143)
(0.00129469 -0.854425 -0.519573)
(-0.853033 -0.445883 -0.271153)
(0.00129469 -0.854414 -0.519592)
(-0.853033 -0.404814 -0.329334)
(0.000879246 -0.775718 -0.631079)
(-0.853032 -0.40481 -0.32934)
(0.000326963 -0.775709 -0.631091)
(-0.853032 -0.356194 -0.381394)
(0.000207806 -0.68255 -0.730839)
(-0.853032 -0.356216 -0.381376)
(0.000575701 -0.68259 -0.730802)
(-0.853033 -0.300942 -0.426344)
(0.00111948 -0.576674 -0.816973)
(-0.853032 -0.240091 -0.463349)
(-0.00190041 -0.460068 -0.887882)
(-0.853032 -0.240091 -0.463349)
(-0.000247082 -0.460069 -0.887883)
(-0.853032 -0.174758 -0.491727)
(-0.00333775 -0.334874 -0.942257)
(-0.853032 -0.174759 -0.491727)
(0.00143969 -0.334878 -0.94226)
(-0.853032 -0.106176 -0.510943)
(0.00121485 -0.203458 -0.979083)
(-0.853033 -0.10617 -0.510943)
(0.000112312 -0.203447 -0.979086)
(-0.853032 -0.0356136 -0.520641)
(0.000735201 -0.0682439 -0.997668)
(-0.853033 0.0356137 -0.520641)
(0 0.0682441 -0.997669)
(-0.853033 0.106168 -0.510944)
(-0.000990495 0.203442 -0.979087)
(-0.000479812 -0.597159 -0.802123)
(0.509196 -0.513945 -0.690347)
(0.000575694 -0.686241 -0.727374)
(0.509196 -0.590613 -0.626015)
(-0.000175862 -0.766057 -0.642772)
(0.509196 -0.659308 -0.553202)
(0.000326675 -0.766037 -0.642796)
(0.509196 -0.659291 -0.553223)
(-0.000719399 -0.835487 -0.549509)
(0.509197 -0.719062 -0.472935)
(-0.000752221 -0.939693 -0.342019)
(0.509197 -0.808747 -0.294359)
(-0.000752221 -0.939694 -0.342015)
(0.509197 -0.808748 -0.294355)
(-0.00100734 -0.893631 -0.448801)
(0.509197 -0.769104 -0.386261)
(-0.000815399 -0.973044 -0.230619)
(0.509197 -0.837451 -0.198482)
(0.0010071 -0.993239 -0.116087)
(0.509197 -0.854831 -0.0999105)
(0.000398929 -1 0)