/*--------------------------------*- C++ -*----------------------------------*\
| =========                 |                                                 |
| \\      /  F ield         | OpenFOAM: The Open Source CFD Toolbox           |
|  \\    /   O peration     | Version:  5.x                                   |
|   \\  /    A nd           | Web:      www.OpenFOAM.org                      |
|    \\/     M anipulation  |                                                 |
\*---------------------------------------------------------------------------*/
/*   Windows 32 and 64 bit porting by blueCAPE: http://www.bluecape.com.pt   *\
|  Based on Windows porting (2.0.x v4) by Symscape: http://www.symscape.com   |
\*---------------------------------------------------------------------------*/
FoamFile
{
    version     2.0;
    format      ascii;
    class       featureEdgeMesh;
    location    "constant/triSurface";
    object      pipe_superfine.eMesh;
}
// * * * * * * * * * * * * * * * * * * * * * * * * * * * * * * * * * * * * * //


// points:

1456
(
(0.24 0.01 0)
(0.24 0 0)
(0.24 0 0.01)
(0.24 0.01 0.01)
(0 0 0.07)
(0 0.01 0.07)
(0 0 0.06)
(0 0.01 0.06)
(0.14 0.01 0)
(0.14 0 0)
(0.14 0 0.01)
(0.14 0.01 0.01)
(0.139782 0 9.46224e-007)
(0.117435 0.01 0.0142372)
(0.11753 0.01 0.0140407)
(0.117435 0 0.0142372)
(0.117342 0 0.0144345)
(0.117342 0.01 0.0144345)
(0.117251 0 0.0146327)
(0.117251 0.01 0.0146327)
(0.117161 0 0.0148316)
(0.117161 0.01 0.0148316)
(0.117073 0 0.0150313)
(0.117073 0.01 0.0150313)
(0.116987 0 0.0152317)
(0.116987 0.01 0.0152317)
(0.116903 0 0.0154329)
(0.116903 0.01 0.0154329)
(0.11682 0 0.0156348)
(0.11682 0.01 0.0156348)
(0.11674 0 0.0158375)
(0.11674 0.01 0.0158375)
(0.11666 0 0.0160408)
(0.11666 0.01 0.0160408)
(0.116583 0 0.0162448)
(0.116583 0.01 0.0162448)
(0.116508 0 0.0164495)
(0.116508 0.01 0.0164495)
(0.116434 0 0.0166548)
(0.116434 0.01 0.0166548)
(0.116362 0 0.0168608)
(0.116362 0.01 0.0168608)
(0.116292 0 0.0170674)
(0.116292 0.01 0.0170674)
(0.116224 0 0.0172746)
(0.116224 0.01 0.0172746)
(0.116157 0 0.0174823)
(0.116157 0.01 0.0174823)
(0.116092 0 0.0176907)
(0.116092 0.01 0.0176907)
(0.11603 0 0.0178996)
(0.11603 0.01 0.0178996)
(0.115969 0 0.0181091)
(0.115969 0.01 0.0181091)
(0.115909 0 0.018319)
(0.115909 0.01 0.018319)
(0.115852 0 0.0185295)
(0.115852 0.01 0.0185295)
(0.115796 0 0.0187405)
(0.115796 0.01 0.0187405)
(0.115743 0 0.018952)
(0.115743 0.01 0.018952)
(0.115691 0 0.0191639)
(0.115691 0.01 0.0191639)
(0.115641 0 0.0193762)
(0.115641 0.01 0.0193762)
(0.115593 0 0.019589)
(0.115593 0.01 0.019589)
(0.115546 0 0.0198022)
(0.115546 0.01 0.0198022)
(0.115502 0 0.0200158)
(0.115502 0.01 0.0200158)
(0.115459 0 0.0202298)
(0.115459 0.01 0.0202298)
(0.115419 0 0.0204441)
(0.115419 0.01 0.0204441)
(0.11538 0 0.0206588)
(0.11538 0.01 0.0206588)
(0.115343 0 0.0208738)
(0.115343 0.01 0.0208738)
(0.115308 0 0.0210891)
(0.115308 0.01 0.0210891)
(0.115275 0 0.0213048)
(0.115275 0.01 0.0213048)
(0.115243 0 0.0215207)
(0.115243 0.01 0.0215207)
(0.115214 0 0.0217368)
(0.115214 0.01 0.0217368)
(0.115186 0 0.0219533)
(0.115186 0.01 0.0219533)
(0.115161 0 0.0221699)
(0.115161 0.01 0.0221699)
(0.115137 0 0.0223868)
(0.115137 0.01 0.0223868)
(0.115115 0 0.0226039)
(0.115115 0.01 0.0226039)
(0.115095 0 0.0228211)
(0.115095 0.01 0.0228211)
(0.115077 0 0.0230385)
(0.115077 0.01 0.0230385)
(0.115061 0 0.0232561)
(0.115061 0.01 0.0232561)
(0.115047 0 0.0234738)
(0.115047 0.01 0.0234738)
(0.115034 0 0.0236916)
(0.115034 0.01 0.0236916)
(0.115024 0 0.0239095)
(0.115024 0.01 0.0239095)
(0.115015 0 0.0241275)
(0.115015 0.01 0.0241275)
(0.115009 0 0.0243456)
(0.115009 0.01 0.0243456)
(0.115004 0 0.0245637)
(0.115004 0.01 0.0245637)
(0.115001 0 0.0247818)
(0.115001 0.01 0.0247818)
(0.115 0 0.025)
(0.115 0.01 0.025)
(0.139782 0.01 9.46224e-007)
(0.139564 0 3.80725e-006)
(0.139564 0.01 3.80725e-006)
(0.139346 0 8.56817e-006)
(0.139346 0.01 8.56817e-006)
(0.139127 0 1.5229e-005)
(0.139127 0.01 1.5229e-005)
(0.13891 0 2.37897e-005)
(0.13891 0.01 2.37897e-005)
(0.138692 0 3.42578e-005)
(0.138692 0.01 3.42578e-005)
(0.138474 0 4.66257e-005)
(0.138474 0.01 4.66257e-005)
(0.138256 0 6.08936e-005)
(0.138256 0.01 6.08936e-005)
(0.138039 0 7.70614e-005)
(0.138039 0.01 7.70614e-005)
(0.137821 0 9.5129e-005)
(0.137821 0.01 9.5129e-005)
(0.137604 0 0.000115089)
(0.137604 0.01 0.000115089)
(0.137387 0 0.000136949)
(0.137387 0.01 0.000136949)
(0.13717 0 0.000160702)
(0.13717 0.01 0.000160702)
(0.136953 0 0.000186347)
(0.136953 0.01 0.000186347)
(0.136737 0 0.000213876)
(0.136737 0.01 0.000213876)
(0.136521 0 0.000243299)
(0.136521 0.01 0.000243299)
(0.136305 0 0.000274599)
(0.136305 0.01 0.000274599)
(0.136089 0 0.000307791)
(0.136089 0.01 0.000307791)
(0.135874 0 0.000342861)
(0.135874 0.01 0.000342861)
(0.135659 0 0.000379801)
(0.135659 0.01 0.000379801)
(0.135444 0 0.000418626)
(0.135444 0.01 0.000418626)
(0.13523 0 0.000459321)
(0.13523 0.01 0.000459321)
(0.135016 0 0.000501879)
(0.135016 0.01 0.000501879)
(0.134802 0 0.000546306)
(0.134802 0.01 0.000546306)
(0.134589 0 0.000592597)
(0.134589 0.01 0.000592597)
(0.134376 0 0.000640742)
(0.134376 0.01 0.000640742)
(0.134164 0 0.000690751)
(0.134164 0.01 0.000690751)
(0.133952 0 0.000742607)
(0.133952 0.01 0.000742607)
(0.13374 0 0.000796303)
(0.13374 0.01 0.000796303)
(0.133529 0 0.000851855)
(0.133529 0.01 0.000851855)
(0.133319 0 0.000909239)
(0.133319 0.01 0.000909239)
(0.133109 0 0.000968456)
(0.133109 0.01 0.000968456)
(0.1329 0 0.00102951)
(0.1329 0.01 0.00102951)
(0.132691 0 0.00109238)
(0.132691 0.01 0.00109238)
(0.132482 0 0.00115708)
(0.132482 0.01 0.00115708)
(0.132275 0 0.00122359)
(0.132275 0.01 0.00122359)
(0.132067 0 0.00129191)
(0.132067 0.01 0.00129191)
(0.131861 0 0.00136203)
(0.131861 0.01 0.00136203)
(0.131655 0 0.00143396)
(0.131655 0.01 0.00143396)
(0.13145 0 0.00150769)
(0.13145 0.01 0.00150769)
(0.131245 0 0.0015832)
(0.131245 0.01 0.0015832)
(0.131041 0 0.00166049)
(0.131041 0.01 0.00166049)
(0.130838 0 0.00173956)
(0.130838 0.01 0.00173956)
(0.130635 0 0.0018204)
(0.130635 0.01 0.0018204)
(0.130433 0 0.00190301)
(0.130433 0.01 0.00190301)
(0.130232 0 0.00198738)
(0.130232 0.01 0.00198738)
(0.130031 0 0.0020735)
(0.130031 0.01 0.0020735)
(0.129832 0 0.00216136)
(0.129832 0.01 0.00216136)
(0.129633 0 0.00225097)
(0.129633 0.01 0.00225097)
(0.129434 0 0.00234231)
(0.129434 0.01 0.00234231)
(0.129237 0 0.00243536)
(0.129237 0.01 0.00243536)
(0.129041 0 0.00253015)
(0.129041 0.01 0.00253015)
(0.128845 0 0.00262664)
(0.128845 0.01 0.00262664)
(0.12865 0 0.00272483)
(0.12865 0.01 0.00272483)
(0.128456 0 0.00282473)
(0.128456 0.01 0.00282473)
(0.128263 0 0.00292631)
(0.128263 0.01 0.00292631)
(0.128071 0 0.00302957)
(0.128071 0.01 0.00302957)
(0.12788 0 0.0031345)
(0.12788 0.01 0.0031345)
(0.127689 0 0.00324111)
(0.127689 0.01 0.00324111)
(0.1275 0 0.00334936)
(0.1275 0.01 0.00334936)
(0.127311 0 0.00345927)
(0.127311 0.01 0.00345927)
(0.127124 0 0.00357081)
(0.127124 0.01 0.00357081)
(0.126937 0 0.00368399)
(0.126937 0.01 0.00368399)
(0.126752 0 0.00379879)
(0.126752 0.01 0.00379879)
(0.126567 0 0.00391521)
(0.126567 0.01 0.00391521)
(0.126384 0 0.00403323)
(0.126384 0.01 0.00403323)
(0.126202 0 0.00415285)
(0.126202 0.01 0.00415285)
(0.12602 0 0.00427406)
(0.12602 0.01 0.00427406)
(0.12584 0 0.00439685)
(0.12584 0.01 0.00439685)
(0.125661 0 0.00452119)
(0.125661 0.01 0.00452119)
(0.125482 0 0.00464711)
(0.125482 0.01 0.00464711)
(0.125305 0 0.00477457)
(0.125305 0.01 0.00477457)
(0.125129 0 0.00490358)
(0.125129 0.01 0.00490358)
(0.124955 0 0.00503411)
(0.124955 0.01 0.00503411)
(0.124781 0 0.00516617)
(0.124781 0.01 0.00516617)
(0.124609 0 0.00529973)
(0.124609 0.01 0.00529973)
(0.124437 0 0.00543479)
(0.124437 0.01 0.00543479)
(0.124267 0 0.00557135)
(0.124267 0.01 0.00557135)
(0.124098 0 0.00570938)
(0.124098 0.01 0.00570938)
(0.12393 0 0.00584889)
(0.12393 0.01 0.00584889)
(0.123764 0 0.00598985)
(0.123764 0.01 0.00598985)
(0.123599 0 0.00613226)
(0.123599 0.01 0.00613226)
(0.123434 0 0.00627611)
(0.123434 0.01 0.00627611)
(0.123272 0 0.00642138)
(0.123272 0.01 0.00642138)
(0.12311 0 0.00656806)
(0.12311 0.01 0.00656806)
(0.12295 0 0.00671615)
(0.12295 0.01 0.00671615)
(0.122791 0 0.00686564)
(0.122791 0.01 0.00686564)
(0.122634 0 0.0070165)
(0.122634 0.01 0.0070165)
(0.122477 0 0.00716874)
(0.122477 0.01 0.00716874)
(0.122322 0 0.00732233)
(0.122322 0.01 0.00732233)
(0.122169 0 0.00747726)
(0.122169 0.01 0.00747726)
(0.122016 0 0.00763354)
(0.122016 0.01 0.00763354)
(0.121866 0 0.00779113)
(0.121866 0.01 0.00779113)
(0.121716 0 0.00795004)
(0.121716 0.01 0.00795004)
(0.121568 0 0.00811024)
(0.121568 0.01 0.00811024)
(0.121421 0 0.00827173)
(0.121421 0.01 0.00827173)
(0.121276 0 0.0084345)
(0.121276 0.01 0.0084345)
(0.121132 0 0.00859852)
(0.121132 0.01 0.00859852)
(0.12099 0 0.0087638)
(0.12099 0.01 0.0087638)
(0.120849 0 0.00893031)
(0.120849 0.01 0.00893031)
(0.120709 0 0.00909804)
(0.120709 0.01 0.00909804)
(0.120571 0 0.00926699)
(0.120571 0.01 0.00926699)
(0.120435 0 0.00943713)
(0.120435 0.01 0.00943713)
(0.1203 0 0.00960846)
(0.1203 0.01 0.00960846)
(0.120166 0 0.00978096)
(0.120166 0.01 0.00978096)
(0.120034 0 0.00995462)
(0.120034 0.01 0.00995462)
(0.119904 0 0.0101294)
(0.119904 0.01 0.0101294)
(0.119775 0 0.0103054)
(0.119775 0.01 0.0103054)
(0.119647 0 0.0104824)
(0.119647 0.01 0.0104824)
(0.119521 0 0.0106606)
(0.119521 0.01 0.0106606)
(0.119397 0 0.0108398)
(0.119397 0.01 0.0108398)
(0.119274 0 0.0110202)
(0.119274 0.01 0.0110202)
(0.119153 0 0.0112016)
(0.119153 0.01 0.0112016)
(0.119033 0 0.011384)
(0.119033 0.01 0.011384)
(0.118915 0 0.0115675)
(0.118915 0.01 0.0115675)
(0.118799 0 0.011752)
(0.118799 0.01 0.011752)
(0.118684 0 0.0119375)
(0.118684 0.01 0.0119375)
(0.118571 0 0.0121241)
(0.118571 0.01 0.0121241)
(0.118459 0 0.0123115)
(0.118459 0.01 0.0123115)
(0.118349 0 0.0125)
(0.118349 0.01 0.0125)
(0.118241 0 0.0126894)
(0.118241 0.01 0.0126894)
(0.118134 0 0.0128798)
(0.118134 0.01 0.0128798)
(0.11803 0 0.013071)
(0.11803 0.01 0.013071)
(0.117926 0 0.0132632)
(0.117926 0.01 0.0132632)
(0.117825 0 0.0134563)
(0.117825 0.01 0.0134563)
(0.117725 0 0.0136502)
(0.117725 0.01 0.0136502)
(0.117627 0 0.013845)
(0.117627 0.01 0.013845)
(0.11753 0 0.0140407)
(0.125 0 0.025)
(0.125001 0 0.0248691)
(0.133542 0.01 0.0114612)
(0.133424 0.01 0.0115181)
(0.133542 0 0.0114612)
(0.133661 0 0.0114054)
(0.133661 0.01 0.0114054)
(0.13378 0 0.0113506)
(0.13378 0.01 0.0113506)
(0.133899 0 0.0112968)
(0.133899 0.01 0.0112968)
(0.134019 0 0.0112441)
(0.134019 0.01 0.0112441)
(0.134139 0 0.0111924)
(0.134139 0.01 0.0111924)
(0.13426 0 0.0111418)
(0.13426 0.01 0.0111418)
(0.134381 0 0.0110922)
(0.134381 0.01 0.0110922)
(0.134503 0 0.0110437)
(0.134503 0.01 0.0110437)
(0.134624 0 0.0109963)
(0.134624 0.01 0.0109963)
(0.134747 0 0.0109499)
(0.134747 0.01 0.0109499)
(0.13487 0 0.0109046)
(0.13487 0.01 0.0109046)
(0.134993 0 0.0108604)
(0.134993 0.01 0.0108604)
(0.135117 0 0.0108172)
(0.135117 0.01 0.0108172)
(0.13524 0 0.0107751)
(0.13524 0.01 0.0107751)
(0.135365 0 0.0107342)
(0.135365 0.01 0.0107342)
(0.135489 0 0.0106942)
(0.135489 0.01 0.0106942)
(0.135614 0 0.0106554)
(0.135614 0.01 0.0106554)
(0.13574 0 0.0106177)
(0.13574 0.01 0.0106177)
(0.135865 0 0.0105811)
(0.135865 0.01 0.0105811)
(0.135991 0 0.0105455)
(0.135991 0.01 0.0105455)
(0.136118 0 0.0105111)
(0.136118 0.01 0.0105111)
(0.136244 0 0.0104778)
(0.136244 0.01 0.0104778)
(0.136371 0 0.0104456)
(0.136371 0.01 0.0104456)
(0.136498 0 0.0104145)
(0.136498 0.01 0.0104145)
(0.136626 0 0.0103844)
(0.136626 0.01 0.0103844)
(0.136753 0 0.0103556)
(0.136753 0.01 0.0103556)
(0.136881 0 0.0103278)
(0.136881 0.01 0.0103278)
(0.13701 0 0.0103011)
(0.13701 0.01 0.0103011)
(0.137138 0 0.0102756)
(0.137138 0.01 0.0102756)
(0.137267 0 0.0102512)
(0.137267 0.01 0.0102512)
(0.137395 0 0.0102279)
(0.137395 0.01 0.0102279)
(0.137524 0 0.0102057)
(0.137524 0.01 0.0102057)
(0.137653 0 0.0101847)
(0.137653 0.01 0.0101847)
(0.137783 0 0.0101648)
(0.137783 0.01 0.0101648)
(0.137912 0 0.010146)
(0.137912 0.01 0.010146)
(0.138042 0 0.0101283)
(0.138042 0.01 0.0101283)
(0.138172 0 0.0101118)
(0.138172 0.01 0.0101118)
(0.138302 0 0.0100964)
(0.138302 0.01 0.0100964)
(0.138432 0 0.0100822)
(0.138432 0.01 0.0100822)
(0.138562 0 0.010069)
(0.138562 0.01 0.010069)
(0.138693 0 0.0100571)
(0.138693 0.01 0.0100571)
(0.138823 0 0.0100462)
(0.138823 0.01 0.0100462)
(0.138954 0 0.0100365)
(0.138954 0.01 0.0100365)
(0.139084 0 0.010028)
(0.139084 0.01 0.010028)
(0.139215 0 0.0100206)
(0.139215 0.01 0.0100206)
(0.139346 0 0.0100143)
(0.139346 0.01 0.0100143)
(0.139476 0 0.0100091)
(0.139476 0.01 0.0100091)
(0.139607 0 0.0100051)
(0.139607 0.01 0.0100051)
(0.139738 0 0.0100023)
(0.139738 0.01 0.0100023)
(0.139869 0 0.0100006)
(0.139869 0.01 0.0100006)
(0.125001 0.01 0.0248691)
(0.125 0.01 0.025)
(0.125002 0 0.0247382)
(0.125002 0.01 0.0247382)
(0.125005 0 0.0246073)
(0.125005 0.01 0.0246073)
(0.125009 0 0.0244765)
(0.125009 0.01 0.0244765)
(0.125014 0 0.0243457)
(0.125014 0.01 0.0243457)
(0.125021 0 0.024215)
(0.125021 0.01 0.024215)
(0.125028 0 0.0240843)
(0.125028 0.01 0.0240843)
(0.125036 0 0.0239537)
(0.125036 0.01 0.0239537)
(0.125046 0 0.0238231)
(0.125046 0.01 0.0238231)
(0.125057 0 0.0236927)
(0.125057 0.01 0.0236927)
(0.125069 0 0.0235623)
(0.125069 0.01 0.0235623)
(0.125082 0 0.0234321)
(0.125082 0.01 0.0234321)
(0.125096 0 0.0233019)
(0.125096 0.01 0.0233019)
(0.125112 0 0.023172)
(0.125112 0.01 0.023172)
(0.125128 0 0.0230421)
(0.125128 0.01 0.0230421)
(0.125146 0 0.0229124)
(0.125146 0.01 0.0229124)
(0.125165 0 0.0227828)
(0.125165 0.01 0.0227828)
(0.125185 0 0.0226535)
(0.125185 0.01 0.0226535)
(0.125206 0 0.0225243)
(0.125206 0.01 0.0225243)
(0.125228 0 0.0223953)
(0.125228 0.01 0.0223953)
(0.125251 0 0.0222665)
(0.125251 0.01 0.0222665)
(0.125276 0 0.0221379)
(0.125276 0.01 0.0221379)
(0.125301 0 0.0220095)
(0.125301 0.01 0.0220095)
(0.125328 0 0.0218813)
(0.125328 0.01 0.0218813)
(0.125356 0 0.0217534)
(0.125356 0.01 0.0217534)
(0.125384 0 0.0216257)
(0.125384 0.01 0.0216257)
(0.125414 0 0.0214983)
(0.125414 0.01 0.0214983)
(0.125446 0 0.0213712)
(0.125446 0.01 0.0213712)
(0.125478 0 0.0212443)
(0.125478 0.01 0.0212443)
(0.125511 0 0.0211177)
(0.125511 0.01 0.0211177)
(0.125546 0 0.0209914)
(0.125546 0.01 0.0209914)
(0.125581 0 0.0208654)
(0.125581 0.01 0.0208654)
(0.125618 0 0.0207398)
(0.125618 0.01 0.0207398)
(0.125655 0 0.0206144)
(0.125655 0.01 0.0206144)
(0.125694 0 0.0204894)
(0.125694 0.01 0.0204894)
(0.125734 0 0.0203647)
(0.125734 0.01 0.0203647)
(0.125775 0 0.0202404)
(0.125775 0.01 0.0202404)
(0.125817 0 0.0201165)
(0.125817 0.01 0.0201165)
(0.12586 0 0.0199929)
(0.12586 0.01 0.0199929)
(0.125905 0 0.0198697)
(0.125905 0.01 0.0198697)
(0.12595 0 0.0197469)
(0.12595 0.01 0.0197469)
(0.125996 0 0.0196245)
(0.125996 0.01 0.0196245)
(0.126044 0 0.0195025)
(0.126044 0.01 0.0195025)
(0.126092 0 0.0193809)
(0.126092 0.01 0.0193809)
(0.126142 0 0.0192598)
(0.126142 0.01 0.0192598)
(0.126192 0 0.019139)
(0.126192 0.01 0.019139)
(0.126244 0 0.0190188)
(0.126244 0.01 0.0190188)
(0.126297 0 0.018899)
(0.126297 0.01 0.018899)
(0.126351 0 0.0187796)
(0.126351 0.01 0.0187796)
(0.126405 0 0.0186607)
(0.126405 0.01 0.0186607)
(0.126461 0 0.0185423)
(0.126461 0.01 0.0185423)
(0.126518 0 0.0184244)
(0.126518 0.01 0.0184244)
(0.126576 0 0.018307)
(0.126576 0.01 0.018307)
(0.126635 0 0.0181901)
(0.126635 0.01 0.0181901)
(0.126695 0 0.0180738)
(0.126695 0.01 0.0180738)
(0.126756 0 0.0179579)
(0.126756 0.01 0.0179579)
(0.126818 0 0.0178426)
(0.126818 0.01 0.0178426)
(0.126881 0 0.0177279)
(0.126881 0.01 0.0177279)
(0.126945 0 0.0176136)
(0.126945 0.01 0.0176136)
(0.12701 0 0.0175)
(0.12701 0.01 0.0175)
(0.127076 0 0.0173869)
(0.127076 0.01 0.0173869)
(0.127143 0 0.0172744)
(0.127143 0.01 0.0172744)
(0.12721 0 0.0171625)
(0.12721 0.01 0.0171625)
(0.127279 0 0.0170512)
(0.127279 0.01 0.0170512)
(0.127349 0 0.0169405)
(0.127349 0.01 0.0169405)
(0.12742 0 0.0168304)
(0.12742 0.01 0.0168304)
(0.127492 0 0.0167209)
(0.127492 0.01 0.0167209)
(0.127564 0 0.0166121)
(0.127564 0.01 0.0166121)
(0.127638 0 0.0165039)
(0.127638 0.01 0.0165039)
(0.127713 0 0.0163963)
(0.127713 0.01 0.0163963)
(0.127788 0 0.0162895)
(0.127788 0.01 0.0162895)
(0.127865 0 0.0161832)
(0.127865 0.01 0.0161832)
(0.127942 0 0.0160777)
(0.127942 0.01 0.0160777)
(0.12802 0 0.0159728)
(0.12802 0.01 0.0159728)
(0.1281 0 0.0158686)
(0.1281 0.01 0.0158686)
(0.12818 0 0.0157651)
(0.12818 0.01 0.0157651)
(0.128261 0 0.0156623)
(0.128261 0.01 0.0156623)
(0.128343 0 0.0155602)
(0.128343 0.01 0.0155602)
(0.128426 0 0.0154588)
(0.128426 0.01 0.0154588)
(0.128509 0 0.0153582)
(0.128509 0.01 0.0153582)
(0.128594 0 0.0152583)
(0.128594 0.01 0.0152583)
(0.128679 0 0.0151591)
(0.128679 0.01 0.0151591)
(0.128766 0 0.0150607)
(0.128766 0.01 0.0150607)
(0.128853 0 0.014963)
(0.128853 0.01 0.014963)
(0.128941 0 0.0148661)
(0.128941 0.01 0.0148661)
(0.12903 0 0.01477)
(0.12903 0.01 0.01477)
(0.129119 0 0.0146747)
(0.129119 0.01 0.0146747)
(0.12921 0 0.0145801)
(0.12921 0.01 0.0145801)
(0.129301 0 0.0144864)
(0.129301 0.01 0.0144864)
(0.129393 0 0.0143934)
(0.129393 0.01 0.0143934)
(0.129486 0 0.0143012)
(0.129486 0.01 0.0143012)
(0.12958 0 0.0142099)
(0.12958 0.01 0.0142099)
(0.129675 0 0.0141194)
(0.129675 0.01 0.0141194)
(0.12977 0 0.0140297)
(0.12977 0.01 0.0140297)
(0.129866 0 0.0139408)
(0.129866 0.01 0.0139408)
(0.129963 0 0.0138528)
(0.129963 0.01 0.0138528)
(0.130061 0 0.0137657)
(0.130061 0.01 0.0137657)
(0.130159 0 0.0136794)
(0.130159 0.01 0.0136794)
(0.130258 0 0.0135939)
(0.130258 0.01 0.0135939)
(0.130358 0 0.0135093)
(0.130358 0.01 0.0135093)
(0.130459 0 0.0134256)
(0.130459 0.01 0.0134256)
(0.13056 0 0.0133428)
(0.13056 0.01 0.0133428)
(0.130662 0 0.0132609)
(0.130662 0.01 0.0132609)
(0.130765 0 0.0131798)
(0.130765 0.01 0.0131798)
(0.130869 0 0.0130997)
(0.130869 0.01 0.0130997)
(0.130973 0 0.0130205)
(0.130973 0.01 0.0130205)
(0.131078 0 0.0129422)
(0.131078 0.01 0.0129422)
(0.131183 0 0.0128647)
(0.131183 0.01 0.0128647)
(0.131289 0 0.0127883)
(0.131289 0.01 0.0127883)
(0.131396 0 0.0127127)
(0.131396 0.01 0.0127127)
(0.131504 0 0.0126381)
(0.131504 0.01 0.0126381)
(0.131612 0 0.0125644)
(0.131612 0.01 0.0125644)
(0.131721 0 0.0124917)
(0.131721 0.01 0.0124917)
(0.13183 0 0.0124199)
(0.13183 0.01 0.0124199)
(0.13194 0 0.0123491)
(0.13194 0.01 0.0123491)
(0.132051 0 0.0122793)
(0.132051 0.01 0.0122793)
(0.132162 0 0.0122104)
(0.132162 0.01 0.0122104)
(0.132274 0 0.0121425)
(0.132274 0.01 0.0121425)
(0.132387 0 0.0120756)
(0.132387 0.01 0.0120756)
(0.1325 0 0.0120096)
(0.1325 0.01 0.0120096)
(0.132614 0 0.0119447)
(0.132614 0.01 0.0119447)
(0.132728 0 0.0118807)
(0.132728 0.01 0.0118807)
(0.132843 0 0.0118177)
(0.132843 0.01 0.0118177)
(0.132958 0 0.0117558)
(0.132958 0.01 0.0117558)
(0.133074 0 0.0116948)
(0.133074 0.01 0.0116948)
(0.13319 0 0.0116349)
(0.13319 0.01 0.0116349)
(0.133307 0 0.011576)
(0.133307 0.01 0.011576)
(0.133424 0 0.0115181)
(0.115 0.01 0.045)
(0.115 0 0.045)
(0.125 0 0.045)
(0.125 0.01 0.045)
(0.1 0.01 0.06)
(0.100131 0.01 0.0599994)
(0.113539 0 0.0514577)
(0.113482 0 0.0515756)
(0.113539 0.01 0.0514577)
(0.113595 0.01 0.0513393)
(0.113595 0 0.0513393)
(0.113649 0.01 0.0512204)
(0.113649 0 0.0512204)
(0.113703 0.01 0.0511011)
(0.113703 0 0.0511011)
(0.113756 0.01 0.0509812)
(0.113756 0 0.0509812)
(0.113808 0.01 0.050861)
(0.113808 0 0.050861)
(0.113858 0.01 0.0507402)
(0.113858 0 0.0507402)
(0.113908 0.01 0.0506191)
(0.113908 0 0.0506191)
(0.113956 0.01 0.0504975)
(0.113956 0 0.0504975)
(0.114004 0.01 0.0503755)
(0.114004 0 0.0503755)
(0.11405 0.01 0.0502531)
(0.11405 0 0.0502531)
(0.114095 0.01 0.0501303)
(0.114095 0 0.0501303)
(0.11414 0.01 0.0500071)
(0.11414 0 0.0500071)
(0.114183 0.01 0.0498835)
(0.114183 0 0.0498835)
(0.114225 0.01 0.0497596)
(0.114225 0 0.0497596)
(0.114266 0.01 0.0496353)
(0.114266 0 0.0496353)
(0.114306 0.01 0.0495106)
(0.114306 0 0.0495106)
(0.114345 0.01 0.0493856)
(0.114345 0 0.0493856)
(0.114382 0.01 0.0492602)
(0.114382 0 0.0492602)
(0.114419 0.01 0.0491346)
(0.114419 0 0.0491346)
(0.114455 0.01 0.0490086)
(0.114455 0 0.0490086)
(0.114489 0.01 0.0488823)
(0.114489 0 0.0488823)
(0.114522 0.01 0.0487557)
(0.114522 0 0.0487557)
(0.114554 0.01 0.0486288)
(0.114554 0 0.0486288)
(0.114585 0.01 0.0485017)
(0.114585 0 0.0485017)
(0.114616 0.01 0.0483743)
(0.114616 0 0.0483743)
(0.114644 0.01 0.0482466)
(0.114644 0 0.0482466)
(0.114672 0.01 0.0481187)
(0.114672 0 0.0481187)
(0.114699 0.01 0.0479905)
(0.114699 0 0.0479905)
(0.114724 0.01 0.0478621)
(0.114724 0 0.0478621)
(0.114749 0.01 0.0477335)
(0.114749 0 0.0477335)
(0.114772 0.01 0.0476047)
(0.114772 0 0.0476047)
(0.114794 0.01 0.0474757)
(0.114794 0 0.0474757)
(0.114815 0.01 0.0473465)
(0.114815 0 0.0473465)
(0.114835 0.01 0.0472171)
(0.114835 0 0.0472171)
(0.114854 0.01 0.0470876)
(0.114854 0 0.0470876)
(0.114872 0.01 0.0469579)
(0.114872 0 0.0469579)
(0.114888 0.01 0.046828)
(0.114888 0 0.046828)
(0.114904 0.01 0.046698)
(0.114904 0 0.046698)
(0.114918 0.01 0.0465679)
(0.114918 0 0.0465679)
(0.114931 0.01 0.0464377)
(0.114931 0 0.0464377)
(0.114943 0.01 0.0463073)
(0.114943 0 0.0463073)
(0.114954 0.01 0.0461769)
(0.114954 0 0.0461769)
(0.114964 0.01 0.0460464)
(0.114964 0 0.0460464)
(0.114972 0.01 0.0459157)
(0.114972 0 0.0459157)
(0.114979 0.01 0.045785)
(0.114979 0 0.045785)
(0.114986 0.01 0.0456543)
(0.114986 0 0.0456543)
(0.114991 0.01 0.0455235)
(0.114991 0 0.0455235)
(0.114995 0.01 0.0453927)
(0.114995 0 0.0453927)
(0.114998 0.01 0.0452618)
(0.114998 0 0.0452618)
(0.114999 0.01 0.0451309)
(0.114999 0 0.0451309)
(0.100131 0 0.0599994)
(0.1 0 0.06)
(0.100262 0.01 0.0599977)
(0.100262 0 0.0599977)
(0.100393 0.01 0.0599949)
(0.100393 0 0.0599949)
(0.100524 0.01 0.0599909)
(0.100524 0 0.0599909)
(0.100654 0.01 0.0599857)
(0.100654 0 0.0599857)
(0.100785 0.01 0.0599794)
(0.100785 0 0.0599794)
(0.100916 0.01 0.059972)
(0.100916 0 0.059972)
(0.101046 0.01 0.0599635)
(0.101046 0 0.0599635)
(0.101177 0.01 0.0599538)
(0.101177 0 0.0599538)
(0.101307 0.01 0.0599429)
(0.101307 0 0.0599429)
(0.101438 0.01 0.0599309)
(0.101438 0 0.0599309)
(0.101568 0.01 0.0599178)
(0.101568 0 0.0599178)
(0.101698 0.01 0.0599036)
(0.101698 0 0.0599036)
(0.101828 0.01 0.0598882)
(0.101828 0 0.0598882)
(0.101958 0.01 0.0598717)
(0.101958 0 0.0598717)
(0.102088 0.01 0.059854)
(0.102088 0 0.059854)
(0.102217 0.01 0.0598352)
(0.102217 0 0.0598352)
(0.102347 0.01 0.0598153)
(0.102347 0 0.0598153)
(0.102476 0.01 0.0597943)
(0.102476 0 0.0597943)
(0.102605 0.01 0.0597721)
(0.102605 0 0.0597721)
(0.102734 0.01 0.0597488)
(0.102734 0 0.0597488)
(0.102862 0.01 0.0597244)
(0.102862 0 0.0597244)
(0.102991 0.01 0.0596989)
(0.102991 0 0.0596989)
(0.103119 0.01 0.0596722)
(0.103119 0 0.0596722)
(0.103247 0.01 0.0596444)
(0.103247 0 0.0596444)
(0.103374 0.01 0.0596155)
(0.103374 0 0.0596155)
(0.103502 0.01 0.0595855)
(0.103502 0 0.0595855)
(0.103629 0.01 0.0595544)
(0.103629 0 0.0595544)
(0.103756 0.01 0.0595222)
(0.103756 0 0.0595222)
(0.103882 0.01 0.0594889)
(0.103882 0 0.0594889)
(0.104009 0.01 0.0594545)
(0.104009 0 0.0594545)
(0.104135 0.01 0.0594189)
(0.104135 0 0.0594189)
(0.10426 0.01 0.0593823)
(0.10426 0 0.0593823)
(0.104386 0.01 0.0593446)
(0.104386 0 0.0593446)
(0.104511 0.01 0.0593057)
(0.104511 0 0.0593057)
(0.104635 0.01 0.0592658)
(0.104635 0 0.0592658)
(0.10476 0.01 0.0592249)
(0.10476 0 0.0592249)
(0.104883 0.01 0.0591828)
(0.104883 0 0.0591828)
(0.105007 0.01 0.0591396)
(0.105007 0 0.0591396)
(0.10513 0.01 0.0590954)
(0.10513 0 0.0590954)
(0.105253 0.01 0.0590501)
(0.105253 0 0.0590501)
(0.105375 0.01 0.0590037)
(0.105375 0 0.0590037)
(0.105498 0.01 0.0589563)
(0.105498 0 0.0589563)
(0.105619 0.01 0.0589078)
(0.105619 0 0.0589078)
(0.10574 0.01 0.0588582)
(0.10574 0 0.0588582)
(0.105861 0.01 0.0588076)
(0.105861 0 0.0588076)
(0.105981 0.01 0.0587559)
(0.105981 0 0.0587559)
(0.106101 0.01 0.0587032)
(0.106101 0 0.0587032)
(0.10622 0.01 0.0586494)
(0.10622 0 0.0586494)
(0.106339 0.01 0.0585946)
(0.106339 0 0.0585946)
(0.106458 0.01 0.0585388)
(0.106458 0 0.0585388)
(0.106576 0.01 0.0584819)
(0.106576 0 0.0584819)
(0.106693 0.01 0.058424)
(0.106693 0 0.058424)
(0.10681 0.01 0.0583651)
(0.10681 0 0.0583651)
(0.106926 0.01 0.0583052)
(0.106926 0 0.0583052)
(0.107042 0.01 0.0582442)
(0.107042 0 0.0582442)
(0.107157 0.01 0.0581823)
(0.107157 0 0.0581823)
(0.107272 0.01 0.0581193)
(0.107272 0 0.0581193)
(0.107386 0.01 0.0580553)
(0.107386 0 0.0580553)
(0.1075 0.01 0.0579904)
(0.1075 0 0.0579904)
(0.107613 0.01 0.0579244)
(0.107613 0 0.0579244)
(0.107726 0.01 0.0578575)
(0.107726 0 0.0578575)
(0.107837 0.01 0.0577896)
(0.107837 0 0.0577896)
(0.107949 0.01 0.0577207)
(0.107949 0 0.0577207)
(0.10806 0.01 0.0576509)
(0.10806 0 0.0576509)
(0.10817 0.01 0.0575801)
(0.10817 0 0.0575801)
(0.108279 0.01 0.0575083)
(0.108279 0 0.0575083)
(0.108388 0.01 0.0574356)
(0.108388 0 0.0574356)
(0.108496 0.01 0.0573619)
(0.108496 0 0.0573619)
(0.108604 0.01 0.0572873)
(0.108604 0 0.0572873)
(0.10871 0.01 0.0572117)
(0.10871 0 0.0572117)
(0.108817 0.01 0.0571353)
(0.108817 0 0.0571353)
(0.108922 0.01 0.0570579)
(0.108922 0 0.0570579)
(0.109027 0.01 0.0569795)
(0.109027 0 0.0569795)
(0.109131 0.01 0.0569003)
(0.109131 0 0.0569003)
(0.109235 0.01 0.0568202)
(0.109235 0 0.0568202)
(0.109338 0.01 0.0567391)
(0.109338 0 0.0567391)
(0.10944 0.01 0.0566572)
(0.10944 0 0.0566572)
(0.109541 0.01 0.0565744)
(0.109541 0 0.0565744)
(0.109642 0.01 0.0564907)
(0.109642 0 0.0564907)
(0.109742 0.01 0.0564061)
(0.109742 0 0.0564061)
(0.109841 0.01 0.0563206)
(0.109841 0 0.0563206)
(0.109939 0.01 0.0562343)
(0.109939 0 0.0562343)
(0.110037 0.01 0.0561472)
(0.110037 0 0.0561472)
(0.110134 0.01 0.0560592)
(0.110134 0 0.0560592)
(0.11023 0.01 0.0559703)
(0.11023 0 0.0559703)
(0.110325 0.01 0.0558806)
(0.110325 0 0.0558806)
(0.11042 0.01 0.0557901)
(0.11042 0 0.0557901)
(0.110514 0.01 0.0556987)
(0.110514 0 0.0556987)
(0.110607 0.01 0.0556066)
(0.110607 0 0.0556066)
(0.110699 0.01 0.0555136)
(0.110699 0 0.0555136)
(0.11079 0.01 0.0554199)
(0.11079 0 0.0554199)
(0.110881 0.01 0.0553253)
(0.110881 0 0.0553253)
(0.11097 0.01 0.05523)
(0.11097 0 0.05523)
(0.111059 0.01 0.0551338)
(0.111059 0 0.0551338)
(0.111147 0.01 0.055037)
(0.111147 0 0.055037)
(0.111234 0.01 0.0549393)
(0.111234 0 0.0549393)
(0.111321 0.01 0.0548409)
(0.111321 0 0.0548409)
(0.111406 0.01 0.0547417)
(0.111406 0 0.0547417)
(0.111491 0.01 0.0546418)
(0.111491 0 0.0546418)
(0.111574 0.01 0.0545412)
(0.111574 0 0.0545412)
(0.111657 0.01 0.0544398)
(0.111657 0 0.0544398)
(0.111739 0.01 0.0543377)
(0.111739 0 0.0543377)
(0.11182 0.01 0.0542349)
(0.11182 0 0.0542349)
(0.1119 0.01 0.0541314)
(0.1119 0 0.0541314)
(0.111979 0.01 0.0540272)
(0.111979 0 0.0540272)
(0.112058 0.01 0.0539223)
(0.112058 0 0.0539223)
(0.112135 0.01 0.0538168)
(0.112135 0 0.0538168)
(0.112212 0.01 0.0537105)
(0.112212 0 0.0537105)
(0.112287 0.01 0.0536036)
(0.112287 0 0.0536036)
(0.112362 0.01 0.0534961)
(0.112362 0 0.0534961)
(0.112436 0.01 0.0533879)
(0.112436 0 0.0533879)
(0.112508 0.01 0.053279)
(0.112508 0 0.053279)
(0.11258 0.01 0.0531696)
(0.11258 0 0.0531696)
(0.112651 0.01 0.0530595)
(0.112651 0 0.0530595)
(0.112721 0.01 0.0529488)
(0.112721 0 0.0529488)
(0.11279 0.01 0.0528375)
(0.11279 0 0.0528375)
(0.112857 0.01 0.0527256)
(0.112857 0 0.0527256)
(0.112924 0.01 0.0526131)
(0.112924 0 0.0526131)
(0.11299 0.01 0.0525)
(0.11299 0 0.0525)
(0.113055 0.01 0.0523864)
(0.113055 0 0.0523864)
(0.113119 0.01 0.0522721)
(0.113119 0 0.0522721)
(0.113182 0.01 0.0521574)
(0.113182 0 0.0521574)
(0.113244 0.01 0.0520421)
(0.113244 0 0.0520421)
(0.113305 0.01 0.0519262)
(0.113305 0 0.0519262)
(0.113365 0.01 0.0518099)
(0.113365 0 0.0518099)
(0.113424 0.01 0.051693)
(0.113424 0 0.051693)
(0.113482 0.01 0.0515756)
(0.124999 0.01 0.0452182)
(0.110763 0 0.0675646)
(0.110959 0 0.0674699)
(0.110763 0.01 0.0675646)
(0.110565 0.01 0.0676577)
(0.110565 0 0.0676577)
(0.110367 0.01 0.067749)
(0.110367 0 0.067749)
(0.110168 0.01 0.0678386)
(0.110168 0 0.0678386)
(0.109969 0.01 0.0679265)
(0.109969 0 0.0679265)
(0.109768 0.01 0.0680126)
(0.109768 0 0.0680126)
(0.109567 0.01 0.068097)
(0.109567 0 0.068097)
(0.109365 0.01 0.0681796)
(0.109365 0 0.0681796)
(0.109163 0.01 0.0682604)
(0.109163 0 0.0682604)
(0.108959 0.01 0.0683395)
(0.108959 0 0.0683395)
(0.108755 0.01 0.0684168)
(0.108755 0 0.0684168)
(0.10855 0.01 0.0684923)
(0.10855 0 0.0684923)
(0.108345 0.01 0.068566)
(0.108345 0 0.068566)
(0.108139 0.01 0.068638)
(0.108139 0 0.068638)
(0.107933 0.01 0.0687081)
(0.107933 0 0.0687081)
(0.107725 0.01 0.0687764)
(0.107725 0 0.0687764)
(0.107518 0.01 0.0688429)
(0.107518 0 0.0688429)
(0.107309 0.01 0.0689076)
(0.107309 0 0.0689076)
(0.1071 0.01 0.0689705)
(0.1071 0 0.0689705)
(0.106891 0.01 0.0690315)
(0.106891 0 0.0690315)
(0.106681 0.01 0.0690908)
(0.106681 0 0.0690908)
(0.106471 0.01 0.0691482)
(0.106471 0 0.0691482)
(0.10626 0.01 0.0692037)
(0.10626 0 0.0692037)
(0.106048 0.01 0.0692574)
(0.106048 0 0.0692574)
(0.105836 0.01 0.0693092)
(0.105836 0 0.0693092)
(0.105624 0.01 0.0693593)
(0.105624 0 0.0693593)
(0.105411 0.01 0.0694074)
(0.105411 0 0.0694074)
(0.105198 0.01 0.0694537)
(0.105198 0 0.0694537)
(0.104984 0.01 0.0694981)
(0.104984 0 0.0694981)
(0.10477 0.01 0.0695407)
(0.10477 0 0.0695407)
(0.104556 0.01 0.0695814)
(0.104556 0 0.0695814)
(0.104341 0.01 0.0696202)
(0.104341 0 0.0696202)
(0.104126 0.01 0.0696571)
(0.104126 0 0.0696571)
(0.103911 0.01 0.0696922)
(0.103911 0 0.0696922)
(0.103695 0.01 0.0697254)
(0.103695 0 0.0697254)
(0.103479 0.01 0.0697567)
(0.103479 0 0.0697567)
(0.103263 0.01 0.0697861)
(0.103263 0 0.0697861)
(0.103047 0.01 0.0698136)
(0.103047 0 0.0698136)
(0.10283 0.01 0.0698393)
(0.10283 0 0.0698393)
(0.102613 0.01 0.069863)
(0.102613 0 0.069863)
(0.102396 0.01 0.0698849)
(0.102396 0 0.0698849)
(0.102179 0.01 0.0699049)
(0.102179 0 0.0699049)
(0.101962 0.01 0.0699229)
(0.101962 0 0.0699229)
(0.101744 0.01 0.0699391)
(0.101744 0 0.0699391)
(0.101526 0.01 0.0699534)
(0.101526 0 0.0699534)