/*--------------------------------*- C++ -*----------------------------------*\
| =========                 |                                                 |
| \\      /  F ield         | OpenFOAM: The Open Source CFD Toolbox           |
|  \\    /   O peration     | Version:  2.2.0                                 |
|   \\  /    A nd           | Web:      www.OpenFOAM.org                      |
|    \\/     M anipulation  |                                                 |
\*---------------------------------------------------------------------------*/
FoamFile
{
    version     2.0;
    format      ascii;
    class       dictionary;
    object      fvSolution;
}
// * * * * * * * * * * * * * * * * * * * * * * * * * * * * * * * * * * * * * //

solvers
{
    pcorr
    {
        solver           GAMG;
        tolerance        0.02;
        relTol           0;
        smoother         GaussSeidel;
        nPreSweeps       0;
        nPostSweeps      2;
        cacheAgglomeration on;
        agglomerator     faceAreaPair;
        nCellsInCoarsestLevel 10;
        mergeLevels      1;
    }

    p
    {
        $pcorr
        tolerance        1e-7;
        relTol           0;
    }

    pFinal
    {
        $p;
        tolerance        1e-7;
        relTol           0; // 0;
    }

    "(U|k|omega)"
    {
        solver          PBiCG;
        preconditioner  DILU;
        tolerance       1e-06;
        relTol          0;
    }

    "(U|k|omega)Final"
    {
        $U;
        tolerance       1e-06;
        relTol          0; // 0;
    }

   
}

SIMPLE
{
    nNonOrthogonalCorrectors 0;
    pRefCell        0;
    pRefValue       0;

    residualControl
    {
        p               1e-4;
        U               1e-4;
    }
}

relaxationFactors
{
    fields
    {
        p               0.1; // 0.3;
    }
    equations
    {
        "(U|k|omega)"      0.3; // 0.7;
        "(U|k|omega)Final" 0.7; // 1.0;
    }
}

cache
{
    grad(U);
}



/* * * * * * * * * * * * * * * * * * * * * * * * * * * * * * * * * * * * * //
