/*--------------------------------*- C++ -*----------------------------------*\
| =========                 |                                                 |
| \\      /  F ield         | OpenFOAM: The Open Source CFD Toolbox           |
|  \\    /   O peration     | Version:  5.x                                   |
|   \\  /    A nd           | Web:      www.OpenFOAM.org                      |
|    \\/     M anipulation  |                                                 |
\*---------------------------------------------------------------------------*/
/*   Windows 32 and 64 bit porting by blueCAPE: http://www.bluecape.com.pt   *\
|  Based on Windows porting (2.0.x v4) by Symscape: http://www.symscape.com   |
\*---------------------------------------------------------------------------*/
FoamFile
{
    version     2.0;
    format      ascii;
    class       polyBoundaryMesh;
    location    "2/polyMesh";
    object      boundary;
}
// * * * * * * * * * * * * * * * * * * * * * * * * * * * * * * * * * * * * * //

5
(
    walls
    {
        type            wall;
        inGroups        1(wall);
        nFaces          380;
        startFace       34978;
    }
    inlet
    {
        type            patch;
        nFaces          10;
        startFace       35358;
    }
    outlet
    {
        type            patch;
        nFaces          10;
        startFace       35368;
    }
    frontAndBack
    {
        type            empty;
        inGroups        1(empty);
        nFaces          9592;
        startFace       35378;
    }
    pipe_superfine
    {
        type            wall;
        inGroups        1(wall);
        nFaces          6736;
        startFace       44970;
    }
)

// ************************************************************************* //
